*
*
*
*                       LINUX           Mon Oct  6 18:30:54 2025
*
*
*
*  PROGRAM  advgen
*
*  HSPICE LIBRARY
*
*
*

*
.SUBCKT 1x8_demux vdd gnd D S0 S1 S2 Y0 Y1 Y2 Y3 Y4 Y5 Y6 Y7
*
*
*  caps2d version: 10
*
*
*       TRANSISTOR CARDS
*
*
MavD1_1	Y1#2	avC15#18	gnd#48	gnd#2	nmos1v#20ivpcell#20gpdk090
+ L=0.1U	W=0.24U
+ AD=0.0672P	AS=0.0672P	PD=1.04U	PS=1.04U
+ simW=2.4e-07 fw=2.4e-07
MavD1_2	avC38	D#30	gnd#45	gnd#2	nmos1v#20ivpcell#20gpdk090	L=0.1U
+ W=0.24U
+ AD=0.0144P	AS=0.0672P	PD=0.36U	PS=1.04U
+ simW=2.4e-07 fw=2.4e-07
MavD1_3	avC40	avC25#27	avC38	gnd#2	nmos1v#20ivpcell#20gpdk090
+ L=0.1U	W=0.24U
+ AD=0.0144P	AS=0.0144P	PD=0.36U	PS=0.36U
+ simW=2.4e-07 fw=2.4e-07
MavD1_4	avC42	S1#22	avC40	gnd#2	nmos1v#20ivpcell#20gpdk090	L=0.1U
+ W=0.24U
+ AD=0.0144P	AS=0.0144P	PD=0.36U	PS=0.36U
+ simW=2.4e-07 fw=2.4e-07
MavD1_5	avC19#11	avC23#27	avC42	gnd#2
+ nmos1v#20ivpcell#20gpdk090	L=0.1U	W=0.24U
+ AD=0.0672P	AS=0.0144P	PD=1.04U	PS=0.36U
+ simW=2.4e-07 fw=2.4e-07
MavD1_6	Y2#2	avC19#18	gnd#42	gnd#2	nmos1v#20ivpcell#20gpdk090
+ L=0.1U	W=0.24U
+ AD=0.0672P	AS=0.0672P	PD=1.04U	PS=1.04U
+ simW=2.4e-07 fw=2.4e-07
MavD1_7	avC44	D#41	gnd#39	gnd#2	nmos1v#20ivpcell#20gpdk090	L=0.1U
+ W=0.24U
+ AD=0.0144P	AS=0.0672P	PD=0.36U	PS=1.04U
+ simW=2.4e-07 fw=2.4e-07
MavD1_8	avC46	S2#36	avC44	gnd#2	nmos1v#20ivpcell#20gpdk090	L=0.1U
+ W=0.24U
+ AD=0.0144P	AS=0.0144P	PD=0.36U	PS=0.36U
+ simW=2.4e-07 fw=2.4e-07
MavD1_9	avC48	S1#41	avC46	gnd#2	nmos1v#20ivpcell#20gpdk090	L=0.1U
+ W=0.24U
+ AD=0.0144P	AS=0.0144P	PD=0.36U	PS=0.36U
+ simW=2.4e-07 fw=2.4e-07
MavD1_10	avC21#11	avC23#34	avC48	gnd#2
+ nmos1v#20ivpcell#20gpdk090	L=0.1U	W=0.24U
+ AD=0.0672P	AS=0.0144P	PD=1.04U	PS=0.36U
+ simW=2.4e-07 fw=2.4e-07
MavD1_11	Y3#2	avC21#18	gnd#36	gnd#2
+ nmos1v#20ivpcell#20gpdk090	L=0.1U	W=0.24U
+ AD=0.0672P	AS=0.0672P	PD=1.04U	PS=1.04U
+ simW=2.4e-07 fw=2.4e-07
MavD1_12	Y5#2	avC17#18	gnd#104	gnd#2
+ nmos1v#20ivpcell#20gpdk090	L=0.1U	W=0.24U
+ AD=0.0672P	AS=0.0672P	PD=1.04U	PS=1.04U
+ simW=2.4e-07 fw=2.4e-07
MavD1_13	avC39	D#33	gnd#101	gnd#2
+ nmos1v#20ivpcell#20gpdk090	L=0.1U	W=0.24U
+ AD=0.0144P	AS=0.0672P	PD=0.36U	PS=1.04U
+ simW=2.4e-07 fw=2.4e-07
MavD1_14	avC41	avC25#29	avC39	gnd#2
+ nmos1v#20ivpcell#20gpdk090	L=0.1U	W=0.24U
+ AD=0.0144P	AS=0.0144P	PD=0.36U	PS=0.36U
+ simW=2.4e-07 fw=2.4e-07
MavD1_15	avC43	S1#25	avC41	gnd#2	nmos1v#20ivpcell#20gpdk090
+ L=0.1U	W=0.24U
+ AD=0.0144P	AS=0.0144P	PD=0.36U	PS=0.36U
+ simW=2.4e-07 fw=2.4e-07
MavD1_16	avC18#11	S0#35	avC43	gnd#2
+ nmos1v#20ivpcell#20gpdk090	L=0.1U	W=0.24U
+ AD=0.0672P	AS=0.0144P	PD=1.04U	PS=0.36U
+ simW=2.4e-07 fw=2.4e-07
MavD1_17	Y6#2	avC18#18	gnd#98	gnd#2
+ nmos1v#20ivpcell#20gpdk090	L=0.1U	W=0.24U
+ AD=0.0672P	AS=0.0672P	PD=1.04U	PS=1.04U
+ simW=2.4e-07 fw=2.4e-07
MavD1_18	avC45	D#43	gnd#95	gnd#2	nmos1v#20ivpcell#20gpdk090
+ L=0.1U	W=0.24U
+ AD=0.0144P	AS=0.0672P	PD=0.36U	PS=1.04U
+ simW=2.4e-07 fw=2.4e-07
MavD1_19	avC47	S2#38	avC45	gnd#2	nmos1v#20ivpcell#20gpdk090
+ L=0.1U	W=0.24U
+ AD=0.0144P	AS=0.0144P	PD=0.36U	PS=0.36U
+ simW=2.4e-07 fw=2.4e-07
MavD1_20	avC49	S1#43	avC47	gnd#2	nmos1v#20ivpcell#20gpdk090
+ L=0.1U	W=0.24U
+ AD=0.0144P	AS=0.0144P	PD=0.36U	PS=0.36U
+ simW=2.4e-07 fw=2.4e-07
MavD1_21	avC20#11	S0#45	avC49	gnd#2
+ nmos1v#20ivpcell#20gpdk090	L=0.1U	W=0.24U
+ AD=0.0672P	AS=0.0144P	PD=1.04U	PS=0.36U
+ simW=2.4e-07 fw=2.4e-07
MavD1_22	Y7#2	avC20#18	gnd#92	gnd#2
+ nmos1v#20ivpcell#20gpdk090	L=0.1U	W=0.24U
+ AD=0.0672P	AS=0.0672P	PD=1.04U	PS=1.04U
+ simW=2.4e-07 fw=2.4e-07
MavD1_23	avC23#5	S0#9	gnd#35	gnd#2
+ nmos1v#20ivpcell#20gpdk090	L=0.1U	W=0.24U
+ AD=0.0672P	AS=0.0672P	PD=1.04U	PS=1.04U
+ simW=2.4e-07 fw=2.4e-07
MavD1_24	avC24#5	S1#8	gnd#63	gnd#2
+ nmos1v#20ivpcell#20gpdk090	L=0.1U	W=0.24U
+ AD=0.0672P	AS=0.0672P	PD=1.04U	PS=1.04U
+ simW=2.4e-07 fw=2.4e-07
MavD1_25	avC25#5	S2#7	gnd#60	gnd#2
+ nmos1v#20ivpcell#20gpdk090	L=0.1U	W=0.24U
+ AD=0.0672P	AS=0.0672P	PD=1.04U	PS=1.04U
+ simW=2.4e-07 fw=2.4e-07
MavD1_26	avC26	D#8	gnd#57	gnd#2	nmos1v#20ivpcell#20gpdk090
+ L=0.1U	W=0.24U
+ AD=0.0144P	AS=0.0672P	PD=0.36U	PS=1.04U
+ simW=2.4e-07 fw=2.4e-07
MavD1_27	avC28	avC25#14	avC26	gnd#2
+ nmos1v#20ivpcell#20gpdk090	L=0.1U	W=0.24U
+ AD=0.0144P	AS=0.0144P	PD=0.36U	PS=0.36U
+ simW=2.4e-07 fw=2.4e-07
MavD1_28	avC30	avC24#23	avC28	gnd#2
+ nmos1v#20ivpcell#20gpdk090	L=0.1U	W=0.24U
+ AD=0.0144P	AS=0.0144P	PD=0.36U	PS=0.36U
+ simW=2.4e-07 fw=2.4e-07
MavD1_29	avC16#10	avC23#14	avC30	gnd#2
+ nmos1v#20ivpcell#20gpdk090	L=0.1U	W=0.24U
+ AD=0.0672P	AS=0.0144P	PD=1.04U	PS=0.36U
+ simW=2.4e-07 fw=2.4e-07
MavD1_30	Y0#2	avC16#14	gnd#54	gnd#2
+ nmos1v#20ivpcell#20gpdk090	L=0.1U	W=0.24U
+ AD=0.0672P	AS=0.0672P	PD=1.04U	PS=1.04U
+ simW=2.4e-07 fw=2.4e-07
MavD1_31	avC32	D#19	gnd#51	gnd#2	nmos1v#20ivpcell#20gpdk090
+ L=0.1U	W=0.24U
+ AD=0.0144P	AS=0.0672P	PD=0.36U	PS=1.04U
+ simW=2.4e-07 fw=2.4e-07
MavD1_32	avC34	S2#13	avC32	gnd#2	nmos1v#20ivpcell#20gpdk090
+ L=0.1U	W=0.24U
+ AD=0.0144P	AS=0.0144P	PD=0.36U	PS=0.36U
+ simW=2.4e-07 fw=2.4e-07
MavD1_33	avC36	avC24#32	avC34	gnd#2
+ nmos1v#20ivpcell#20gpdk090	L=0.1U	W=0.24U
+ AD=0.0144P	AS=0.0144P	PD=0.36U	PS=0.36U
+ simW=2.4e-07 fw=2.4e-07
MavD1_34	avC15#11	avC23#20	avC36	gnd#2
+ nmos1v#20ivpcell#20gpdk090	L=0.1U	W=0.24U
+ AD=0.0672P	AS=0.0144P	PD=1.04U	PS=0.36U
+ simW=2.4e-07 fw=2.4e-07
MavD1_35	avC27	D#11	gnd#89	gnd#2	nmos1v#20ivpcell#20gpdk090
+ L=0.1U	W=0.24U
+ AD=0.0144P	AS=0.0672P	PD=0.36U	PS=1.04U
+ simW=2.4e-07 fw=2.4e-07
MavD1_36	avC29	avC25#17	avC27	gnd#2
+ nmos1v#20ivpcell#20gpdk090	L=0.1U	W=0.24U
+ AD=0.0144P	AS=0.0144P	PD=0.36U	PS=0.36U
+ simW=2.4e-07 fw=2.4e-07
MavD1_37	avC31	avC24#26	avC29	gnd#2
+ nmos1v#20ivpcell#20gpdk090	L=0.1U	W=0.24U
+ AD=0.0144P	AS=0.0144P	PD=0.36U	PS=0.36U
+ simW=2.4e-07 fw=2.4e-07
MavD1_38	avC22#10	S0#15	avC31	gnd#2
+ nmos1v#20ivpcell#20gpdk090	L=0.1U	W=0.24U
+ AD=0.0672P	AS=0.0144P	PD=1.04U	PS=0.36U
+ simW=2.4e-07 fw=2.4e-07
MavD1_39	Y4#2	avC22#14	gnd#110	gnd#2
+ nmos1v#20ivpcell#20gpdk090	L=0.1U	W=0.24U
+ AD=0.0672P	AS=0.0672P	PD=1.04U	PS=1.04U
+ simW=2.4e-07 fw=2.4e-07
MavD1_40	avC33	D#22	gnd#107	gnd#2
+ nmos1v#20ivpcell#20gpdk090	L=0.1U	W=0.24U
+ AD=0.0144P	AS=0.0672P	PD=0.36U	PS=1.04U
+ simW=2.4e-07 fw=2.4e-07
MavD1_41	avC35	S2#16	avC33	gnd#2	nmos1v#20ivpcell#20gpdk090
+ L=0.1U	W=0.24U
+ AD=0.0144P	AS=0.0144P	PD=0.36U	PS=0.36U
+ simW=2.4e-07 fw=2.4e-07
MavD1_42	avC37	avC24#35	avC35	gnd#2
+ nmos1v#20ivpcell#20gpdk090	L=0.1U	W=0.24U
+ AD=0.0144P	AS=0.0144P	PD=0.36U	PS=0.36U
+ simW=2.4e-07 fw=2.4e-07
MavD1_43	avC17#11	S0#25	avC37	gnd#2
+ nmos1v#20ivpcell#20gpdk090	L=0.1U	W=0.24U
+ AD=0.0672P	AS=0.0144P	PD=1.04U	PS=0.36U
+ simW=2.4e-07 fw=2.4e-07
MavD7_1	Y1#5	avC15#17	vdd#60	vdd#1	pmos1v#20ivpcell#20gpdk090
+ L=0.1U	W=0.48U
+ AD=0.1344P	AS=0.1344P	PD=1.52U	PS=1.52U
+ simW=4.8e-07 fw=4.8e-07
MavD7_2	vdd#57	D#29	avC19#7	vdd#1	pmos1v#20ivpcell#20gpdk090
+ L=0.1U	W=0.48U
+ AD=0.0768P	AS=0.1344P	PD=0.8U	PS=1.52U
+ simW=4.8e-07 fw=4.8e-07
MavD7_3	avC19#14	avC25#26	vdd#57	vdd#1
+ pmos1v#20ivpcell#20gpdk090	L=0.1U	W=0.48U
+ AD=0.0768P	AS=0.0768P	PD=0.8U	PS=0.8U
+ simW=4.8e-07 fw=4.8e-07
MavD7_4	vdd#54	S1#21	avC19#14	vdd#1	pmos1v#20ivpcell#20gpdk090
+ L=0.1U	W=0.48U
+ AD=0.0768P	AS=0.0768P	PD=0.8U	PS=0.8U
+ simW=4.8e-07 fw=4.8e-07
MavD7_5	avC19	avC23#25	vdd#54	vdd#1	pmos1v#20ivpcell#20gpdk090
+ L=0.1U	W=0.48U
+ AD=0.1344P	AS=0.0768P	PD=1.52U	PS=0.8U
+ simW=4.8e-07 fw=4.8e-07
MavD7_6	Y2#5	avC19#17	vdd#51	vdd#1	pmos1v#20ivpcell#20gpdk090
+ L=0.1U	W=0.48U
+ AD=0.1344P	AS=0.1344P	PD=1.52U	PS=1.52U
+ simW=4.8e-07 fw=4.8e-07
MavD7_7	vdd#48	D#40	avC21#7	vdd#1	pmos1v#20ivpcell#20gpdk090
+ L=0.1U	W=0.48U
+ AD=0.0768P	AS=0.1344P	PD=0.8U	PS=1.52U
+ simW=4.8e-07 fw=4.8e-07
MavD7_8	avC21#14	S2#35	vdd#48	vdd#1	pmos1v#20ivpcell#20gpdk090
+ L=0.1U	W=0.48U
+ AD=0.0768P	AS=0.0768P	PD=0.8U	PS=0.8U
+ simW=4.8e-07 fw=4.8e-07
MavD7_9	vdd#45	S1#39	avC21#14	vdd#1	pmos1v#20ivpcell#20gpdk090
+ L=0.1U	W=0.48U
+ AD=0.0768P	AS=0.0768P	PD=0.8U	PS=0.8U
+ simW=4.8e-07 fw=4.8e-07
MavD7_10	avC21	avC23#32	vdd#45	vdd#1
+ pmos1v#20ivpcell#20gpdk090	L=0.1U	W=0.48U
+ AD=0.1344P	AS=0.0768P	PD=1.52U	PS=0.8U
+ simW=4.8e-07 fw=4.8e-07
MavD7_11	Y3#5	avC21#17	vdd#42	vdd#1
+ pmos1v#20ivpcell#20gpdk090	L=0.1U	W=0.48U
+ AD=0.1344P	AS=0.1344P	PD=1.52U	PS=1.52U
+ simW=4.8e-07 fw=4.8e-07
MavD7_12	avC15	avC23#19	vdd#63	vdd#1
+ pmos1v#20ivpcell#20gpdk090	L=0.1U	W=0.48U
+ AD=0.1344P	AS=0.0768P	PD=1.52U	PS=0.8U
+ simW=4.8e-07 fw=4.8e-07
MavD7_13	avC23	S0#8	vdd#39	vdd#1	pmos1v#20ivpcell#20gpdk090
+ L=0.1U	W=0.48U
+ AD=0.1344P	AS=0.1344P	PD=1.52U	PS=1.52U
+ simW=4.8e-07 fw=4.8e-07
MavD7_14	avC24	S1#7	vdd#84	vdd#1	pmos1v#20ivpcell#20gpdk090
+ L=0.1U	W=0.48U
+ AD=0.1344P	AS=0.1344P	PD=1.52U	PS=1.52U
+ simW=4.8e-07 fw=4.8e-07
MavD7_15	avC25	S2#6	vdd#81	vdd#1	pmos1v#20ivpcell#20gpdk090
+ L=0.1U	W=0.48U
+ AD=0.1344P	AS=0.1344P	PD=1.52U	PS=1.52U
+ simW=4.8e-07 fw=4.8e-07
MavD7_16	avC16#6	D#7	vdd#78	vdd#1
+ pmos1v#20ivpcell#20gpdk090	L=0.1U	W=0.48U
+ AD=0.0768P	AS=0.1344P	PD=0.8U	PS=1.52U
+ simW=4.8e-07 fw=4.8e-07
MavD7_17	vdd#75	avC25#13	avC16#6	vdd#1
+ pmos1v#20ivpcell#20gpdk090	L=0.1U	W=0.48U
+ AD=0.0768P	AS=0.0768P	PD=0.8U	PS=0.8U
+ simW=4.8e-07 fw=4.8e-07
MavD7_18	avC16	avC24#21	vdd#75	vdd#1
+ pmos1v#20ivpcell#20gpdk090	L=0.1U	W=0.48U
+ AD=0.0768P	AS=0.0768P	PD=0.8U	PS=0.8U
+ simW=4.8e-07 fw=4.8e-07
MavD7_19	vdd#72	avC23#13	avC16	vdd#1
+ pmos1v#20ivpcell#20gpdk090	L=0.1U	W=0.48U
+ AD=0.1344P	AS=0.0768P	PD=1.52U	PS=0.8U
+ simW=4.8e-07 fw=4.8e-07
MavD7_20	Y0#5	avC16#13	vdd#69	vdd#1
+ pmos1v#20ivpcell#20gpdk090	L=0.1U	W=0.48U
+ AD=0.1344P	AS=0.1344P	PD=1.52U	PS=1.52U
+ simW=4.8e-07 fw=4.8e-07
MavD7_21	vdd#66	D#18	avC15#7	vdd#1
+ pmos1v#20ivpcell#20gpdk090	L=0.1U	W=0.48U
+ AD=0.0768P	AS=0.1344P	PD=0.8U	PS=1.52U
+ simW=4.8e-07 fw=4.8e-07
MavD7_22	avC15#14	S2#12	vdd#66	vdd#1
+ pmos1v#20ivpcell#20gpdk090	L=0.1U	W=0.48U
+ AD=0.0768P	AS=0.0768P	PD=0.8U	PS=0.8U
+ simW=4.8e-07 fw=4.8e-07
MavD7_23	vdd#63	avC24#31	avC15#14	vdd#1
+ pmos1v#20ivpcell#20gpdk090	L=0.1U	W=0.48U
+ AD=0.0768P	AS=0.0768P	PD=0.8U	PS=0.8U
+ simW=4.8e-07 fw=4.8e-07
MavD7_24	vdd#134	D#31	avC18#7	vdd#87
+ pmos1v#20ivpcell#20gpdk090	L=0.1U	W=0.48U
+ AD=0.0768P	AS=0.1344P	PD=0.8U	PS=1.52U
+ simW=4.8e-07 fw=4.8e-07
MavD7_25	avC18#14	avC25#28	vdd#134	vdd#87
+ pmos1v#20ivpcell#20gpdk090	L=0.1U	W=0.48U
+ AD=0.0768P	AS=0.0768P	PD=0.8U	PS=0.8U
+ simW=4.8e-07 fw=4.8e-07
MavD7_26	vdd#131	S1#23	avC18#14	vdd#87
+ pmos1v#20ivpcell#20gpdk090	L=0.1U	W=0.48U
+ AD=0.0768P	AS=0.0768P	PD=0.8U	PS=0.8U
+ simW=4.8e-07 fw=4.8e-07
MavD7_27	avC18	S0#33	vdd#131	vdd#87
+ pmos1v#20ivpcell#20gpdk090	L=0.1U	W=0.48U
+ AD=0.1344P	AS=0.0768P	PD=1.52U	PS=0.8U
+ simW=4.8e-07 fw=4.8e-07
MavD7_28	Y6#5	avC18#17	vdd#128	vdd#87
+ pmos1v#20ivpcell#20gpdk090	L=0.1U	W=0.48U
+ AD=0.1344P	AS=0.1344P	PD=1.52U	PS=1.52U
+ simW=4.8e-07 fw=4.8e-07
MavD7_29	vdd#125	D#42	avC20#7	vdd#87
+ pmos1v#20ivpcell#20gpdk090	L=0.1U	W=0.48U
+ AD=0.0768P	AS=0.1344P	PD=0.8U	PS=1.52U
+ simW=4.8e-07 fw=4.8e-07
MavD7_30	avC20#14	S2#37	vdd#125	vdd#87
+ pmos1v#20ivpcell#20gpdk090	L=0.1U	W=0.48U
+ AD=0.0768P	AS=0.0768P	PD=0.8U	PS=0.8U
+ simW=4.8e-07 fw=4.8e-07
MavD7_31	vdd#122	S1#42	avC20#14	vdd#87
+ pmos1v#20ivpcell#20gpdk090	L=0.1U	W=0.48U
+ AD=0.0768P	AS=0.0768P	PD=0.8U	PS=0.8U
+ simW=4.8e-07 fw=4.8e-07
MavD7_32	avC20	S0#43	vdd#122	vdd#87
+ pmos1v#20ivpcell#20gpdk090	L=0.1U	W=0.48U
+ AD=0.1344P	AS=0.0768P	PD=1.52U	PS=0.8U
+ simW=4.8e-07 fw=4.8e-07
MavD7_33	Y7#5	avC20#17	vdd#119	vdd#87
+ pmos1v#20ivpcell#20gpdk090	L=0.1U	W=0.48U
+ AD=0.1344P	AS=0.1344P	PD=1.52U	PS=1.52U
+ simW=4.8e-07 fw=4.8e-07
MavD7_34	avC22#6	D#9	vdd#116	vdd#87
+ pmos1v#20ivpcell#20gpdk090	L=0.1U	W=0.48U
+ AD=0.0768P	AS=0.1344P	PD=0.8U	PS=1.52U
+ simW=4.8e-07 fw=4.8e-07
MavD7_35	vdd#152	avC25#15	avC22#6	vdd#87
+ pmos1v#20ivpcell#20gpdk090	L=0.1U	W=0.48U
+ AD=0.0768P	AS=0.0768P	PD=0.8U	PS=0.8U
+ simW=4.8e-07 fw=4.8e-07
MavD7_36	avC22	avC24#24	vdd#152	vdd#87
+ pmos1v#20ivpcell#20gpdk090	L=0.1U	W=0.48U
+ AD=0.0768P	AS=0.0768P	PD=0.8U	PS=0.8U
+ simW=4.8e-07 fw=4.8e-07
MavD7_37	vdd#149	S0#13	avC22	vdd#87
+ pmos1v#20ivpcell#20gpdk090	L=0.1U	W=0.48U
+ AD=0.1344P	AS=0.0768P	PD=1.52U	PS=0.8U
+ simW=4.8e-07 fw=4.8e-07
MavD7_38	Y4#5	avC22#13	vdd#146	vdd#87
+ pmos1v#20ivpcell#20gpdk090	L=0.1U	W=0.48U
+ AD=0.1344P	AS=0.1344P	PD=1.52U	PS=1.52U
+ simW=4.8e-07 fw=4.8e-07
MavD7_39	vdd#143	D#20	avC17#7	vdd#87
+ pmos1v#20ivpcell#20gpdk090	L=0.1U	W=0.48U
+ AD=0.0768P	AS=0.1344P	PD=0.8U	PS=1.52U
+ simW=4.8e-07 fw=4.8e-07
MavD7_40	avC17#14	S2#14	vdd#143	vdd#87
+ pmos1v#20ivpcell#20gpdk090	L=0.1U	W=0.48U
+ AD=0.0768P	AS=0.0768P	PD=0.8U	PS=0.8U
+ simW=4.8e-07 fw=4.8e-07
MavD7_41	vdd#140	avC24#33	avC17#14	vdd#87
+ pmos1v#20ivpcell#20gpdk090	L=0.1U	W=0.48U
+ AD=0.0768P	AS=0.0768P	PD=0.8U	PS=0.8U
+ simW=4.8e-07 fw=4.8e-07
MavD7_42	avC17	S0#23	vdd#140	vdd#87
+ pmos1v#20ivpcell#20gpdk090	L=0.1U	W=0.48U
+ AD=0.1344P	AS=0.0768P	PD=1.52U	PS=0.8U
+ simW=4.8e-07 fw=4.8e-07
MavD7_43	Y5#5	avC17#17	vdd#137	vdd#87
+ pmos1v#20ivpcell#20gpdk090	L=0.1U	W=0.48U
+ AD=0.1344P	AS=0.1344P	PD=1.52U	PS=1.52U
+ simW=4.8e-07 fw=4.8e-07
*
*
*       RESISTOR AND CAP/DIODE CARDS
*
Rc1	S0#19	S0#50	    0.3568	$mt7	$X=5.46 $Y=-10.4075
Rc2	S0#50	S0#7	    4.4619	$mt7	$X=3.04 $Y=-9.99
Rc3	S0#50	S0#51	    1.3410	$mt7	$X=7.0325 $Y=-9.99
Rc4	S0#51	S0#29	    0.3555	$mt7	$X=8.605 $Y=-10.4075
Rc5	S0#51	S0#52	    1.3368	$mt7	$X=10.17 $Y=-9.99
Rc6	S0#52	S0#39	    0.3557	$mt7	$X=11.735 $Y=-10.4075
Rc7	S0#52	S0#49	    1.6927	$mt7	$X=13.3 $Y=-9.99
Rd1	S0#7	S0#6	    1.4000	$mt6	$X=1.03 $Y=-4.655
Rd2	S0#18	S0#19	    1.4000	$mt6	$X=5.455 $Y=-10.885
Rd3	avC24#41	avC24#42	    1.4511	$mt6
+ $X=7.845 $Y=-10.2525
Rd4	avC24#42	avC24#10	    0.4204	$mt6
+ $X=5.08 $Y=-10.2775
Rd5	avC24#42	avC24#20	    1.3095	$mt6
+ $X=5.08 $Y=-8.385
Rd6	S0#28	S0#29	    1.4000	$mt6	$X=8.605 $Y=-10.885
Rd7	S0#38	S0#39	    1.4000	$mt6	$X=11.74 $Y=-10.885
Rd8	S1#37	S1#36	    2.6040	$mt6	$X=14.17 $Y=-7.59
Rd9	S1#36	S1#38	    1.6314	$mt6	$X=14.17 $Y=-4.135
Rd10	S1#38	S1#6	    4.2234	$mt6	$X=6.4975 $Y=-3.79
Rd11	S1#38	S1#20	    0.2899	$mt6	$X=11.03 $Y=-4.135
Rd12	S1#20	S1#19	    2.6004	$mt6	$X=11.03 $Y=-7.59
Rd13	S0#48	S0#49	    1.4000	$mt6	$X=14.865 $Y=-10.885
Re1	S0#6	S0#5	    1.4000	$mt5	$X=1.03 $Y=-4.655
Re2	S1#5	S1#6	    1.4000	$mt5	$X=1.965 $Y=-4.655
Re3	avC24#9	avC24#10	    2.8000	$mt5
+ $X=4.735 $Y=-10.645
Re4	avC24#20	avC24#17	    1.4000	$mt5
+ $X=5.1 $Y=-6.775
Re5	S0#17	S0#18	    1.4000	$mt5	$X=5.455 $Y=-10.885
Re6	avC24#40	avC24#41	    1.4000	$mt5
+ $X=7.845 $Y=-10.655
Re7	S0#28	S0#27	    1.4000	$mt5	$X=8.605 $Y=-10.885
Re8	S1#17	S1#19	    1.4000	$mt5	$X=11.015 $Y=-10.64
Re9	S1#20	S1#18	    1.4000	$mt5	$X=11.015 $Y=-4.54
Re10	S0#37	S0#38	    1.4000	$mt5	$X=11.74 $Y=-10.885
Re11	S2#29	S2#31	    3.0184	$mt5	$X=13.94 $Y=-9.7125
Re12	S2#31	S2#32	    6.9962	$mt5	$X=3.945 $Y=-9.7
Re13	S2#32	S2#5	    0.5652	$mt5	$X=2.91 $Y=-3.3425
Re14	S2#31	S2#21	    0.1315	$mt5	$X=7.65 $Y=-9.57
Re15	S2#32	S2#22	    2.0123	$mt5	$X=5.275 $Y=-3.275
Re16	S2#22	S2#28	    4.0675	$mt5	$X=10.79 $Y=-3.27
Re17	S1#34	S1#36	    1.4000	$mt5	$X=14.155 $Y=-4.54
Re18	S1#37	S1#35	    1.4000	$mt5	$X=14.165 $Y=-10.64
Re19	S0#47	S0#48	    1.4000	$mt5	$X=14.865 $Y=-10.885
Rf1	S0#4	S0#5	    1.4000	$mt4	$X=1.03 $Y=-4.655
Rf2	S1#4	S1#5	    1.4000	$mt4	$X=1.965 $Y=-4.655
Rf3	S2#5	S2#4	    1.4000	$mt4	$X=2.91 $Y=-4.655
Rf4	avC24#11	avC24#9	    1.4000	$mt4
+ $X=4.735 $Y=-10.645
Rf5	avC24#17	avC24#18	    2.8000	$mt4
+ $X=5.1 $Y=-6.775
Rf6	S0#16	S0#17	    1.4000	$mt4	$X=5.455 $Y=-10.885
Rf7	S2#21	S2#20	    1.4000	$mt4	$X=7.655 $Y=-9.38
Rf8	S2#19	S2#22	    1.4000	$mt4	$X=7.645 $Y=-3.27
Rf9	avC24#39	avC24#40	    1.4000	$mt4
+ $X=7.845 $Y=-10.6525
Rf10	S0#26	S0#27	    1.4000	$mt4	$X=8.605 $Y=-10.885
Rf11	S1#15	S1#17	    1.4000	$mt4	$X=11.015 $Y=-10.64
Rf12	S1#18	S1#16	    1.4000	$mt4	$X=11.015 $Y=-4.54
Rf13	S0#36	S0#37	    1.4000	$mt4	$X=11.74 $Y=-10.885
Rf14	D#48	D#49	    1.5664	$mt4	$X=13.615 $Y=-10.4425
Rf15	D#49	D#50	    1.3433	$mt4	$X=8.8975 $Y=-10.18
Rf16	D#50	D#51	    1.7709	$mt4	$X=5.4275 $Y=-10.18
Rf17	D#51	D#2	    1.4902	$mt4	$X=1.7525 $Y=-10.59
Rf18	D#49	D#35	    0.2226	$mt4	$X=10.47 $Y=-10.4425
Rf19	D#50	D#24	    0.2228	$mt4	$X=7.325 $Y=-10.4425
Rf20	D#51	D#13	    0.3112	$mt4	$X=3.535 $Y=-10.6775
Rf21	S2#29	S2#27	    1.4000	$mt4	$X=13.94 $Y=-9.38
Rf23	S1#32	S1#34	    1.4000	$mt4	$X=14.155 $Y=-4.54
Rf24	S1#35	S1#33	    1.4000	$mt4	$X=14.165 $Y=-10.64
Rf25	avC23#15	avC23#36	    0.6417	$mt4
+ $X=5.46 $Y=-3.96
Rf26	avC23#36	avC23#9	    1.6223	$mt4
+ $X=3.5475 $Y=-3.205
Rf27	avC23#36	avC23#37	    1.0173	$mt4
+ $X=6.3975 $Y=-3.21
Rf28	avC23#37	avC23#21	    0.9357	$mt4
+ $X=7.335 $Y=-4.29
Rf29	avC23#37	avC23#38	    1.8634	$mt4
+ $X=9.5425 $Y=-3.78
Rf30	avC23#38	avC23#28	    0.3984	$mt4
+ $X=11.75 $Y=-4.25
Rf31	avC23#38	avC23#35	    1.7295	$mt4
+ $X=11.815 $Y=-3.78
Rf32	S0#46	S0#47	    1.4000	$mt4	$X=14.865 $Y=-10.885
Rg1	D#1	D#2	    2.8000	$mt3	$X=-0.03 $Y=-10.59
Rg2	S0#3	S0#4	    1.4000	$mt3	$X=1.03 $Y=-4.655
Rg3	avC23#9	avC23#8	    1.4000	$mt3
+ $X=1.63 $Y=-3.21
Rg4	S1#3	S1#4	    1.4000	$mt3	$X=1.965 $Y=-4.655
Rg5	S2#3	S2#4	    1.4000	$mt3	$X=2.91 $Y=-4.655
Rg6	D#13	D#12	    1.4010	$mt3	$X=4.1825 $Y=-10.765
Rg7	avC24#11	avC24#12	    1.4000	$mt3
+ $X=4.7345 $Y=-10.647
Rg8	S0#12	S0#16	    1.4000	$mt3	$X=5.455 $Y=-10.885
Rg9	avC23#15	avC23#12	    1.4000	$mt3
+ $X=5.45 $Y=-4.77
Rg10	D#24	D#23	    1.4010	$mt3	$X=7.3325 $Y=-10.765
Rg11	S2#17	S2#19	    1.4000	$mt3	$X=7.645 $Y=-3.27
Rg12	S2#20	S2#18	    1.4000	$mt3	$X=7.655 $Y=-9.38
Rg13	avC24#18	avC24#19	    1.0783	$mt3
+ $X=5.11 $Y=-5.6175
Rg14	avC24#19	avC24#38	    0.6397	$mt3
+ $X=4.5675 $Y=-4.52
Rg15	avC24#38	avC24#8	    0.7595	$mt3
+ $X=3.475 $Y=-3.22
Rg16	avC24#38	avC24#37	    1.9898	$mt3
+ $X=5.78 $Y=-3.2
Rg17	avC24#39	avC24#36	    1.4030	$mt3
+ $X=7.8525 $Y=-10.65
Rg18	S0#26	S0#22	    1.4000	$mt3	$X=8.605 $Y=-10.885
Rg19	avC23#18	avC23#21	    1.4000	$mt3
+ $X=8.6 $Y=-4.78
Rg20	D#35	D#34	    1.4010	$mt3	$X=10.4725 $Y=-10.765
Rg21	avC25#21	avC25#22	    4.9697	$mt3
+ $X=10.8 $Y=-9.6575
Rg22	avC25#22	avC25#20	    3.5487	$mt3
+ $X=1.9 $Y=-9.36
Rg23	avC25#22	avC25#9	    0.4740	$mt3
+ $X=3.8475 $Y=-9.36
Rg24	S1#14	S1#15	    1.4000	$mt3	$X=11.015 $Y=-10.64
Rg25	S1#16	S1#13	    1.4000	$mt3	$X=11.015 $Y=-4.54
Rg26	S0#36	S0#32	    1.4000	$mt3	$X=11.74 $Y=-10.885
Rg27	avC23#24	avC23#28	    1.4000	$mt3
+ $X=11.735 $Y=-4.78
Rg28	D#47	D#48	    1.4000	$mt3	$X=13.6125 $Y=-10.765
Rg29	S2#27	S2#24	    1.4000	$mt3	$X=13.94 $Y=-9.38
Rg30	S2#25	S2#28	    1.4000	$mt3	$X=13.93 $Y=-3.27
Rg31	S1#31	S1#32	    1.4000	$mt3	$X=14.155 $Y=-4.54
Rg32	S1#33	S1#30	    1.4000	$mt3	$X=14.165 $Y=-10.64
Rg33	S0#46	S0#42	    1.4000	$mt3	$X=14.865 $Y=-10.885
Rg34	avC23#31	avC23#35	    1.4000	$mt3
+ $X=14.86 $Y=-4.78
Rh1	S0#3	S0#1	    2.8000	$mt2	$X=1.03 $Y=-4.655
Rh2	avC23#4	avC23#8	    2.8000	$mt2
+ $X=1.63 $Y=-3.21
Rh3	S1#3	S1#1	    2.8000	$mt2	$X=1.965 $Y=-4.655
Rh4	avC24#4	avC24#8	    2.8000	$mt2
+ $X=2.575 $Y=-3.21
Rh5	S2#3	S2#1	    2.8000	$mt2	$X=2.91 $Y=-4.655
Rh6	D#5	D#12	    2.8060	$mt2	$X=4.17 $Y=-10.765
Rh7	avC25#8	avC25#9	    2.8000	$mt2
+ $X=4.495 $Y=-9.3725
Rh8	avC24#14	avC24#12	    1.4000	$mt2
+ $X=4.735 $Y=-10.6475
Rh9	avC24#16	avC24#19	    2.8000	$mt2
+ $X=4.74 $Y=-4.5325
Rh10	S0#12	S0#11	    2.8000	$mt2	$X=5.455 $Y=-10.885
Rh11	avC23#11	avC23#12	    1.4000	$mt2
+ $X=5.45 $Y=-4.77
Rh12	D#16	D#23	    2.8060	$mt2	$X=7.32 $Y=-10.765
Rh13	S2#17	S2#9	    1.4000	$mt2	$X=7.645 $Y=-3.27
Rh14	S2#10	S2#18	    2.8000	$mt2	$X=7.655 $Y=-9.38
Rh15	avC24#27	avC24#36	    2.8000	$mt2
+ $X=7.86 $Y=-10.6475
Rh16	avC24#30	avC24#37	    1.4000	$mt2
+ $X=7.875 $Y=-4.53
Rh17	S0#21	S0#22	    2.8000	$mt2	$X=8.605 $Y=-10.885
Rh18	avC23#18	avC23#16	    1.4000	$mt2
+ $X=8.6 $Y=-4.78
Rh19	D#27	D#34	    2.8060	$mt2	$X=10.46 $Y=-10.765
Rh20	avC25#18	avC25#12	    4.5069	$mt2
+ $X=10.82 $Y=-3.57
Rh21	avC25#12	avC25#19	    0.3838	$mt2
+ $X=3.99 $Y=-3.205
Rh22	avC25#19	avC25#20	    2.8780	$mt2
+ $X=3.59 $Y=-3.5
Rh23	avC25#4	avC25#19	    1.4000	$mt2
+ $X=3.515 $Y=-3.21
Rh25	S1#13	S1#10	    1.4000	$mt2	$X=11.015 $Y=-4.54
Rh26	S1#12	S1#14	    2.8000	$mt2	$X=11.015 $Y=-10.64
Rh27	S0#32	S0#31	    2.8000	$mt2	$X=11.74 $Y=-10.885
Rh28	avC23#23	avC23#24	    2.8000	$mt2
+ $X=11.735 $Y=-4.78
Rh29	D#37	D#44	    1.5178	$mt2	$X=13.595 $Y=-4.385
Rh30	D#44	D#45	    1.3433	$mt2	$X=8.8875 $Y=-4.17
Rh31	D#45	D#46	    1.4732	$mt2	$X=5.5925 $Y=-4.17
Rh32	D#46	D#1	    4.3598	$mt2	$X=1.9225 $Y=-4.19
Rh33	D#44	D#26	    0.1817	$mt2	$X=10.46 $Y=-4.3875
Rh34	D#45	D#15	    0.1808	$mt2	$X=7.315 $Y=-4.385
Rh35	D#46	D#3	    1.5810	$mt2	$X=3.87 $Y=-4.25
Rh36	D#38	D#47	    1.4060	$mt2	$X=13.6 $Y=-10.765
Rh37	S2#23	S2#24	    2.8000	$mt2	$X=13.94 $Y=-9.38
Rh38	S2#25	S2#26	    2.8000	$mt2	$X=13.93 $Y=-3.27
Rh39	S1#29	S1#30	    1.4000	$mt2	$X=14.165 $Y=-10.64
Rh40	S1#31	S1#27	    2.8000	$mt2	$X=14.155 $Y=-4.54
Rh41	S0#40	S0#42	    2.8000	$mt2	$X=14.865 $Y=-10.885
Rh42	avC23#31	avC23#30	    2.8000	$mt2
+ $X=14.86 $Y=-4.78
Rh43	gnd#1	gnd#113	    0.9643	$mt2	$X=14.7625 $Y=-6.06
Rh44	gnd#113	gnd#114	    0.1125	$mt2
+ $X=13.19 $Y=-6.06
Rh45	gnd#114	gnd#115	    0.2643	$mt2
+ $X=11.6225 $Y=-6.06
Rh46	gnd#115	gnd#116	    0.1125	$mt2
+ $X=10.05 $Y=-6.06
Rh47	gnd#116	gnd#117	    0.2643	$mt2
+ $X=8.4825 $Y=-6.06
Rh48	gnd#117	gnd#118	    0.1125	$mt2
+ $X=6.91 $Y=-6.06
Rh49	gnd#118	gnd#119	    0.2643	$mt2
+ $X=5.3425 $Y=-6.06
Rh50	gnd#119	gnd#120	    0.1128	$mt2
+ $X=3.77 $Y=-6.06
Rh51	gnd#120	gnd#121	    0.1128	$mt2
+ $X=2.83 $Y=-6.06
Rh52	gnd#121	gnd#122	    0.1125	$mt2
+ $X=1.89 $Y=-6.06
Rh53	gnd#122	gnd#123	    2.8351	$mt2
+ $X=0.825 $Y=-6.19
Rh54	gnd#123	gnd#124	    0.2643	$mt2
+ $X=5.3425 $Y=-12.165
Rh55	gnd#124	gnd#125	    0.1125	$mt2
+ $X=6.91 $Y=-12.165
Rh56	gnd#125	gnd#126	    0.2643	$mt2
+ $X=8.4825 $Y=-12.165
Rh57	gnd#126	gnd#127	    0.1125	$mt2
+ $X=10.05 $Y=-12.165
Rh58	gnd#127	gnd#128	    0.2643	$mt2
+ $X=11.6225 $Y=-12.165
Rh59	gnd#128	gnd#129	    0.1125	$mt2
+ $X=13.19 $Y=-12.165
Rh60	gnd#129	gnd#66	    0.9643	$mt2	$X=14.7625 $Y=-12.165
Rh61	gnd#5	gnd#113	    0.7000	$mt2	$X=13.66 $Y=-5.975
Rh62	gnd#8	gnd#114	    0.7000	$mt2	$X=12.7225 $Y=-5.975
Rh63	gnd#11	gnd#115	    0.7000	$mt2	$X=10.52 $Y=-5.975
Rh64	gnd#14	gnd#116	    0.7000	$mt2	$X=9.5825 $Y=-5.975
Rh65	gnd#17	gnd#117	    0.7000	$mt2	$X=7.38 $Y=-5.975
Rh66	gnd#20	gnd#118	    0.7000	$mt2	$X=6.4425 $Y=-5.975
Rh67	gnd#23	gnd#119	    0.7000	$mt2	$X=4.24 $Y=-5.975
Rh68	gnd#26	gnd#120	    0.7000	$mt2	$X=3.3 $Y=-5.975
Rh69	gnd#29	gnd#121	    0.7000	$mt2	$X=2.36 $Y=-5.975
Rh70	gnd	gnd#122	    0.7000	$mt2	$X=1.4225 $Y=-5.975
Rh71	gnd#87	gnd#123	    0.7000	$mt2	$X=4.24 $Y=-12.08
Rh72	gnd#84	gnd#124	    0.7000	$mt2	$X=6.4425 $Y=-12.08
Rh73	gnd#81	gnd#125	    0.7000	$mt2	$X=7.38 $Y=-12.08
Rh74	gnd#78	gnd#126	    0.7000	$mt2	$X=9.5825 $Y=-12.08
Rh75	gnd#75	gnd#127	    0.7000	$mt2	$X=10.52 $Y=-12.08
Rh76	gnd#72	gnd#128	    0.7000	$mt2	$X=12.7225 $Y=-12.08
Rh77	gnd#69	gnd#129	    0.7000	$mt2	$X=13.66 $Y=-12.08
Rh78	vdd#155	vdd#156	    0.2637	$mt2
+ $X=14.76 $Y=-1.56
Rh79	vdd#156	vdd#157	    0.1131	$mt2
+ $X=13.1875 $Y=-1.56
Rh80	vdd#157	vdd#158	    0.2637	$mt2
+ $X=11.62 $Y=-1.56
Rh81	vdd#158	vdd#159	    0.1131	$mt2
+ $X=10.0475 $Y=-1.56
Rh82	vdd#159	vdd#160	    0.2637	$mt2
+ $X=8.48 $Y=-1.56
Rh83	vdd#160	vdd#161	    0.1131	$mt2
+ $X=6.9075 $Y=-1.56
Rh84	vdd#161	vdd#162	    0.2637	$mt2
+ $X=5.34 $Y=-1.56
Rh85	vdd#162	vdd#163	    0.1128	$mt2
+ $X=3.77 $Y=-1.56
Rh86	vdd#163	vdd#164	    0.1128	$mt2
+ $X=2.83 $Y=-1.56
Rh87	vdd#164	vdd	    0.8131	$mt2	$X=1.8875 $Y=-1.56
Rh88	vdd#155	vdd#165	    1.9797	$mt2
+ $X=16.4075 $Y=-1.64
Rh89	vdd#165	vdd#166	    0.2637	$mt2
+ $X=14.76 $Y=-7.665
Rh90	vdd#166	vdd#167	    0.1131	$mt2
+ $X=13.1875 $Y=-7.665
Rh91	vdd#167	vdd#168	    0.2637	$mt2
+ $X=11.62 $Y=-7.665
Rh92	vdd#168	vdd#169	    0.1131	$mt2
+ $X=10.0475 $Y=-7.665
Rh93	vdd#169	vdd#170	    0.2637	$mt2
+ $X=8.48 $Y=-7.665
Rh94	vdd#170	vdd#171	    0.1131	$mt2
+ $X=6.9075 $Y=-7.665
Rh95	vdd#171	vdd	    0.9637	$mt2	$X=5.34 $Y=-7.665
Rh96	vdd#2	vdd#155	    0.7000	$mt2	$X=15.8575 $Y=-1.64
Rh97	vdd#7	vdd#156	    0.7000	$mt2	$X=13.66 $Y=-1.64
Rh98	vdd#9	vdd#157	    0.7000	$mt2	$X=12.7175 $Y=-1.64
Rh99	vdd#14	vdd#158	    0.7000	$mt2	$X=10.52 $Y=-1.64
Rh100	vdd#16	vdd#159	    0.7000	$mt2	$X=9.5775 $Y=-1.64
Rh101	vdd#21	vdd#160	    0.7000	$mt2	$X=7.38 $Y=-1.64
Rh102	vdd#23	vdd#161	    0.7000	$mt2	$X=6.4375 $Y=-1.64
Rh103	vdd#28	vdd#162	    0.7000	$mt2	$X=4.24 $Y=-1.64
Rh104	vdd#31	vdd#163	    0.7000	$mt2	$X=3.3 $Y=-1.64
Rh105	vdd#34	vdd#164	    0.7000	$mt2	$X=2.36 $Y=-1.64
Rh106	vdd#88	vdd#165	    0.7000	$mt2	$X=15.8575 $Y=-7.745
Rh107	vdd#93	vdd#166	    0.7000	$mt2	$X=13.66 $Y=-7.745
Rh108	vdd#95	vdd#167	    0.7000	$mt2	$X=12.7175 $Y=-7.745
Rh109	vdd#100	vdd#168	    0.7000	$mt2
+ $X=10.52 $Y=-7.745
Rh110	vdd#102	vdd#169	    0.7000	$mt2
+ $X=9.5775 $Y=-7.745
Rh111	vdd#107	vdd#170	    0.7000	$mt2
+ $X=7.38 $Y=-7.745
Rh112	vdd#109	vdd#171	    0.7000	$mt2
+ $X=6.4375 $Y=-7.745
Ri1	S0#1	S0	6.000E-03	$mt1	$X=1.0295 $Y=-4.6545
Ri2	S0#1	S0#2	   10.1732	$mt1	$X=1.1875 $Y=-4.65
Ri4	avC23#2	avC23#4	    0.4174	$mt1
+ $X=1.63 $Y=-2.9545
Ri5	avC23#4	avC23#6	    1.2960	$mt1
+ $X=1.63 $Y=-4.215
Ri7	avC23	avC23#2	   15.0000	$mt1	$X=1.63 $Y=-2.53
Ri8	avC23#5	avC23#6	   15.0000	$mt1
+ $X=1.63 $Y=-5.21
Ri9	S1	S1#1	4.462E-03	$mt1	$X=1.9645 $Y=-4.6545
Ri10	S1#1	S1#2	   10.1765	$mt1	$X=2.125 $Y=-4.65
Ri12	avC24#2	avC24#4	    0.4177	$mt1
+ $X=2.57 $Y=-2.9545
Ri13	avC24#4	avC24#6	    1.2963	$mt1
+ $X=2.57 $Y=-4.215
Ri15	avC24	avC24#2	   15.0000	$mt1	$X=2.57 $Y=-2.53
Ri16	avC24#5	avC24#6	   15.0000	$mt1
+ $X=2.57 $Y=-5.21
Ri17	S2#1	S2	6.000E-03	$mt1	$X=2.9095 $Y=-4.6545
Ri18	S2#1	S2#2	   10.1732	$mt1	$X=3.0675 $Y=-4.65
Ri20	avC25#2	avC25#4	    0.4177	$mt1
+ $X=3.51 $Y=-2.9545
Ri21	avC25#4	avC25#6	    1.2963	$mt1
+ $X=3.51 $Y=-4.215
Ri23	avC25	avC25#2	   15.0000	$mt1	$X=3.51 $Y=-2.53
Ri24	avC25#5	avC25#6	   15.0000	$mt1
+ $X=3.51 $Y=-5.21
Ri25	D	D#3	4.462E-03	$mt1	$X=3.8645 $Y=-4.6595
Ri26	D#3	D#4	   10.1715	$mt1	$X=4.015 $Y=-4.655
Ri27	D#5	D#6	9.333E-03	$mt1	$X=4.1675 $Y=-10.765
Ri28	avC25#8	avC25#10	2.388E-03	$mt1
+ $X=4.4975 $Y=-9.37
Ri29	avC25#11	avC25#12	   11.4027	$mt1
+ $X=4.52 $Y=-3.265
Ri30	avC24#13	avC24#14	1.333E-03	$mt1
+ $X=4.735 $Y=-10.645
Ri31	avC24#15	avC24#16	1.194E-03	$mt1
+ $X=4.74 $Y=-4.525
Ri32	S0#10	S0#11	1.333E-03	$mt1	$X=5.455 $Y=-10.885
Ri33	avC23#10	avC23#11	   11.4036	$mt1
+ $X=5.45 $Y=-4.7725
Ri35	avC16#2	avC16#4	    0.2521	$mt1
+ $X=5.29 $Y=-2.832
Ri36	avC16#4	avC16#5	    0.1108	$mt1
+ $X=5.2 $Y=-2.955
Ri37	avC16#5	avC16#7	    0.6850	$mt1
+ $X=4.78 $Y=-2.955
Ri39	avC16#4	avC16#9	   11.7533	$mt1
+ $X=5.5975 $Y=-2.955
Ri40	avC16#5	avC16#11	    1.4706	$mt1
+ $X=5.11 $Y=-4.0525
Ri42	avC16	avC16#2	   15.0000	$mt1	$X=5.29 $Y=-2.53
Ri43	avC16#6	avC16#7	   15.0000	$mt1
+ $X=4.45 $Y=-2.53
Ri44	avC16#10	avC16#11	   15.0000	$mt1
+ $X=5.11 $Y=-5.21
Ri46	avC22#2	avC22#4	    0.2521	$mt1
+ $X=5.29 $Y=-8.937
Ri47	avC22#4	avC22#5	    0.1108	$mt1
+ $X=5.2 $Y=-9.06
Ri48	avC22#5	avC22#7	    0.6850	$mt1
+ $X=4.78 $Y=-9.06
Ri50	avC22#4	avC22#9	   11.7533	$mt1
+ $X=5.6025 $Y=-9.06
Ri51	avC22#5	avC22#11	    1.4706	$mt1
+ $X=5.11 $Y=-10.1575
Ri53	avC22	avC22#2	   15.0000	$mt1	$X=5.29 $Y=-8.635
Ri54	avC22#6	avC22#7	   15.0000	$mt1
+ $X=4.45 $Y=-8.635
Ri55	avC22#10	avC22#11	   15.0000	$mt1
+ $X=5.11 $Y=-11.315
Ri56	Y0	Y0#1	8.547E-02	$mt1	$X=6.738 $Y=-3.2
Ri57	Y0#1	Y0#3	    1.3339	$mt1	$X=6.65 $Y=-4.175
Ri59	Y0#1	Y0#6	    0.4405	$mt1	$X=6.65 $Y=-2.955
Ri61	Y0#2	Y0#3	   15.0000	$mt1	$X=6.65 $Y=-5.21
Ri62	Y0#5	Y0#6	   15.0000	$mt1	$X=6.65 $Y=-2.53
Ri63	Y4	Y4#1	8.547E-02	$mt1	$X=6.738 $Y=-9.305
Ri64	Y4#1	Y4#3	    1.3339	$mt1	$X=6.65 $Y=-10.28
Ri66	Y4#1	Y4#6	    0.4405	$mt1	$X=6.65 $Y=-9.06
Ri68	Y4#2	Y4#3	   15.0000	$mt1	$X=6.65 $Y=-11.315
Ri69	Y4#5	Y4#6	   15.0000	$mt1	$X=6.65 $Y=-8.635
Ri70	D#14	D#15	   11.4077	$mt1	$X=7.312 $Y=-4.6595
Ri71	D#16	D#17	6.667E-03	$mt1	$X=7.3125 $Y=-10.765
Ri72	S2#8	S2#9	   11.4013	$mt1	$X=7.645 $Y=-3.2675
Ri73	S2#10	S2#11	4.776E-03	$mt1	$X=7.655 $Y=-9.375
Ri74	avC24#27	avC24#28	2.667E-03	$mt1
+ $X=7.86 $Y=-10.645
Ri75	avC24#29	avC24#30	   11.4013	$mt1
+ $X=7.875 $Y=-4.53
Ri76	S0#20	S0#21	1.194E-03	$mt1	$X=8.6025 $Y=-10.885
Ri77	avC23#16	avC23#17	   11.4027	$mt1
+ $X=8.6 $Y=-4.78
Ri79	avC15#2	avC15#4	    0.2521	$mt1
+ $X=8.85 $Y=-2.832
Ri80	avC15#4	avC15#5	    0.3908	$mt1
+ $X=8.55 $Y=-2.955
Ri81	avC15#5	avC15#6	    0.1539	$mt1
+ $X=8.13 $Y=-2.955
Ri82	avC15#6	avC15#8	    0.8050	$mt1
+ $X=7.59 $Y=-2.955
Ri84	avC15#4	avC15#10	   11.4733	$mt1
+ $X=8.975 $Y=-2.955
Ri85	avC15#5	avC15#12	    1.4720	$mt1
+ $X=8.25 $Y=-4.0525
Ri87	avC15#6	avC15#15	    0.2506	$mt1
+ $X=8.01 $Y=-2.8325
Ri89	avC15	avC15#2	   15.0000	$mt1	$X=8.85 $Y=-2.53
Ri90	avC15#7	avC15#8	   15.0000	$mt1
+ $X=7.17 $Y=-2.53
Ri91	avC15#11	avC15#12	   15.0000	$mt1
+ $X=8.25 $Y=-5.21
Ri92	avC15#14	avC15#15	   15.0000	$mt1
+ $X=8.01 $Y=-2.53
Ri94	avC17#2	avC17#4	    0.2521	$mt1
+ $X=8.85 $Y=-8.937
Ri95	avC17#4	avC17#5	    0.3908	$mt1
+ $X=8.55 $Y=-9.06
Ri96	avC17#5	avC17#6	    0.1539	$mt1
+ $X=8.13 $Y=-9.06
Ri97	avC17#6	avC17#8	    0.8050	$mt1
+ $X=7.59 $Y=-9.06
Ri99	avC17#4	avC17#10	   11.4733	$mt1
+ $X=8.975 $Y=-9.06
Ri100	avC17#5	avC17#12	    1.4720	$mt1
+ $X=8.25 $Y=-10.1575
Ri102	avC17#6	avC17#15	    0.2506	$mt1
+ $X=8.01 $Y=-8.9375
Ri104	avC17	avC17#2	   15.0000	$mt1	$X=8.85 $Y=-8.635
Ri105	avC17#7	avC17#8	   15.0000	$mt1
+ $X=7.17 $Y=-8.635
Ri106	avC17#11	avC17#12	   15.0000	$mt1
+ $X=8.25 $Y=-11.315
Ri107	avC17#14	avC17#15	   15.0000	$mt1
+ $X=8.01 $Y=-8.635
Ri108	Y1	Y1#1	8.547E-02	$mt1	$X=9.878 $Y=-3.2
Ri109	Y1#1	Y1#3	    1.3339	$mt1	$X=9.79 $Y=-4.175
Ri111	Y1#1	Y1#6	    0.4405	$mt1	$X=9.79 $Y=-2.955
Ri113	Y1#2	Y1#3	   15.0000	$mt1	$X=9.79 $Y=-5.21
Ri114	Y1#5	Y1#6	   15.0000	$mt1	$X=9.79 $Y=-2.53
Ri115	Y5	Y5#1	8.547E-02	$mt1	$X=9.878 $Y=-9.305
Ri116	Y5#1	Y5#3	    1.3339	$mt1	$X=9.79 $Y=-10.28
Ri118	Y5#1	Y5#6	    0.4405	$mt1	$X=9.79 $Y=-9.06
Ri120	Y5#2	Y5#3	   15.0000	$mt1	$X=9.79 $Y=-11.315
Ri121	Y5#5	Y5#6	   15.0000	$mt1	$X=9.79 $Y=-8.635
Ri122	D#25	D#26	   11.4077	$mt1	$X=10.452 $Y=-4.6645
Ri123	D#27	D#28	6.667E-03	$mt1	$X=10.4525 $Y=-10.765
Ri124	avC25#23	avC25#21	   11.4000	$mt1
+ $X=10.79 $Y=-9.37
Ri125	avC25#25	avC25#18	   10.0040	$mt1
+ $X=10.8025 $Y=-3.265
Ri126	S1#9	S1#10	   11.4012	$mt1	$X=11.015 $Y=-4.54
Ri127	S1#11	S1#12	1.333E-03	$mt1	$X=11.015 $Y=-10.64
Ri128	S0#30	S0#31	1.194E-03	$mt1	$X=11.74 $Y=-10.885
Ri129	avC23#22	avC23#23	1.270E-03	$mt1
+ $X=11.7345 $Y=-4.7795
Ri131	avC19#2	avC19#4	    0.2521	$mt1
+ $X=11.99 $Y=-2.832
Ri132	avC19#4	avC19#5	    0.3908	$mt1
+ $X=11.69 $Y=-2.955
Ri133	avC19#5	avC19#6	    0.1539	$mt1
+ $X=11.27 $Y=-2.955
Ri134	avC19#6	avC19#8	    0.8050	$mt1
+ $X=10.73 $Y=-2.955
Ri136	avC19#4	avC19#10	   11.4733	$mt1
+ $X=12.11 $Y=-2.955
Ri137	avC19#5	avC19#12	    1.4720	$mt1
+ $X=11.39 $Y=-4.0525
Ri139	avC19#6	avC19#15	    0.2506	$mt1
+ $X=11.15 $Y=-2.8325
Ri141	avC19	avC19#2	   15.0000	$mt1	$X=11.99 $Y=-2.53
Ri142	avC19#7	avC19#8	   15.0000	$mt1
+ $X=10.31 $Y=-2.53
Ri143	avC19#11	avC19#12	   15.0000	$mt1
+ $X=11.39 $Y=-5.21
Ri144	avC19#14	avC19#15	   15.0000	$mt1
+ $X=11.15 $Y=-2.53
Ri146	avC18#2	avC18#4	    0.2521	$mt1
+ $X=11.99 $Y=-8.937
Ri147	avC18#4	avC18#5	    0.3908	$mt1
+ $X=11.69 $Y=-9.06
Ri148	avC18#5	avC18#6	    0.1539	$mt1
+ $X=11.27 $Y=-9.06
Ri149	avC18#6	avC18#8	    0.8050	$mt1
+ $X=10.73 $Y=-9.06
Ri151	avC18#4	avC18#10	   11.4733	$mt1
+ $X=12.1175 $Y=-9.06
Ri152	avC18#5	avC18#12	    1.4720	$mt1
+ $X=11.39 $Y=-10.1575
Ri154	avC18#6	avC18#15	    0.2506	$mt1
+ $X=11.15 $Y=-8.9375
Ri156	avC18	avC18#2	   15.0000	$mt1	$X=11.99 $Y=-8.635
Ri157	avC18#7	avC18#8	   15.0000	$mt1
+ $X=10.31 $Y=-8.635
Ri158	avC18#11	avC18#12	   15.0000	$mt1
+ $X=11.39 $Y=-11.315
Ri159	avC18#14	avC18#15	   15.0000	$mt1
+ $X=11.15 $Y=-8.635
Ri160	Y2	Y2#1	8.547E-02	$mt1	$X=13.018 $Y=-3.2
Ri161	Y2#1	Y2#3	    1.3339	$mt1	$X=12.93 $Y=-4.175
Ri163	Y2#1	Y2#6	    0.4405	$mt1	$X=12.93 $Y=-2.955
Ri165	Y2#2	Y2#3	   15.0000	$mt1	$X=12.93 $Y=-5.21
Ri166	Y2#5	Y2#6	   15.0000	$mt1	$X=12.93 $Y=-2.53
Ri167	Y6	Y6#1	8.547E-02	$mt1	$X=13.018 $Y=-9.305
Ri168	Y6#1	Y6#3	    1.3339	$mt1	$X=12.93 $Y=-10.28
Ri170	Y6#1	Y6#6	    0.4405	$mt1	$X=12.93 $Y=-9.06
Ri172	Y6#2	Y6#3	   15.0000	$mt1	$X=12.93 $Y=-11.315
Ri173	Y6#5	Y6#6	   15.0000	$mt1	$X=12.93 $Y=-8.635
Ri174	D#36	D#37	   11.4100	$mt1	$X=13.5895 $Y=-4.6595
Ri175	D#38	D#39	   11.4067	$mt1	$X=13.5925 $Y=-10.765
Ri176	S2#30	S2#23	   10.0027	$mt1	$X=13.94 $Y=-9.375
Ri177	S2#34	S2#26	   10.0000	$mt1	$X=13.93 $Y=-3.2675
Ri178	S1#26	S1#27	1.333E-03	$mt1	$X=14.155 $Y=-4.54
Ri179	S1#28	S1#29	   11.4040	$mt1	$X=14.1625 $Y=-10.64
Ri180	avC23#29	avC23#30	1.194E-03	$mt1
+ $X=14.86 $Y=-4.78
Ri181	S0#40	S0#41	1.333E-03	$mt1	$X=14.865 $Y=-10.885
Ri183	avC21#2	avC21#4	    0.2521	$mt1
+ $X=15.13 $Y=-2.832
Ri184	avC21#4	avC21#5	    0.3908	$mt1
+ $X=14.83 $Y=-2.955
Ri185	avC21#5	avC21#6	    0.1539	$mt1
+ $X=14.41 $Y=-2.955
Ri186	avC21#6	avC21#8	    0.8050	$mt1
+ $X=13.87 $Y=-2.955
Ri188	avC21#4	avC21#10	   11.4733	$mt1
+ $X=15.2575 $Y=-2.955
Ri189	avC21#5	avC21#12	    1.4720	$mt1
+ $X=14.53 $Y=-4.0525
Ri191	avC21#6	avC21#15	    0.2506	$mt1
+ $X=14.29 $Y=-2.8325
Ri193	avC21	avC21#2	   15.0000	$mt1	$X=15.13 $Y=-2.53
Ri194	avC21#7	avC21#8	   15.0000	$mt1
+ $X=13.45 $Y=-2.53
Ri195	avC21#11	avC21#12	   15.0000	$mt1
+ $X=14.53 $Y=-5.21
Ri196	avC21#14	avC21#15	   15.0000	$mt1
+ $X=14.29 $Y=-2.53
Ri198	avC20#2	avC20#4	    0.2521	$mt1
+ $X=15.13 $Y=-8.937
Ri199	avC20#4	avC20#5	    0.3908	$mt1
+ $X=14.83 $Y=-9.06
Ri200	avC20#5	avC20#6	    0.1539	$mt1
+ $X=14.41 $Y=-9.06
Ri201	avC20#6	avC20#8	    0.8050	$mt1
+ $X=13.87 $Y=-9.06
Ri203	avC20#4	avC20#10	   11.4733	$mt1
+ $X=15.2575 $Y=-9.06
Ri204	avC20#5	avC20#12	    1.4720	$mt1
+ $X=14.53 $Y=-10.1575
Ri206	avC20#6	avC20#15	    0.2506	$mt1
+ $X=14.29 $Y=-8.9375
Ri208	avC20	avC20#2	   15.0000	$mt1	$X=15.13 $Y=-8.635
Ri209	avC20#7	avC20#8	   15.0000	$mt1
+ $X=13.45 $Y=-8.635
Ri210	avC20#11	avC20#12	   15.0000	$mt1
+ $X=14.53 $Y=-11.315
Ri211	avC20#14	avC20#15	   15.0000	$mt1
+ $X=14.29 $Y=-8.635
Ri212	Y3	Y3#1	8.547E-02	$mt1	$X=16.158 $Y=-3.2
Ri213	Y3#1	Y3#3	    1.3339	$mt1	$X=16.07 $Y=-4.175
Ri215	Y3#1	Y3#6	    0.4405	$mt1	$X=16.07 $Y=-2.955
Ri217	Y3#2	Y3#3	   15.0000	$mt1	$X=16.07 $Y=-5.21
Ri218	Y3#5	Y3#6	   15.0000	$mt1	$X=16.07 $Y=-2.53
Ri219	Y7	Y7#1	8.547E-02	$mt1	$X=16.158 $Y=-9.305
Ri220	Y7#1	Y7#3	    1.3339	$mt1	$X=16.07 $Y=-10.28
Ri222	Y7#1	Y7#6	    0.4405	$mt1	$X=16.07 $Y=-9.06
Ri224	Y7#2	Y7#3	   15.0000	$mt1	$X=16.07 $Y=-11.315
Ri225	Y7#5	Y7#6	   15.0000	$mt1	$X=16.07 $Y=-8.635
Ri227	vdd#2	vdd#4	3.290E-02	$mt1	$X=15.7375 $Y=-1.76
Ri228	vdd#4	vdd#5	    0.1498	$mt1	$X=15.18 $Y=-1.76
Ri229	vdd#5	vdd#6	    0.1338	$mt1	$X=14.29 $Y=-1.76
Ri230	vdd#6	vdd#7	3.330E-02	$mt1	$X=13.783 $Y=-1.76
Ri232	vdd#7	vdd#9	    0.1508	$mt1	$X=13.19 $Y=-1.76
Ri234	vdd#9	vdd#11	3.290E-02	$mt1	$X=12.597 $Y=-1.76
Ri235	vdd#11	vdd#12	    0.1498	$mt1	$X=12.04 $Y=-1.76
Ri236	vdd#12	vdd#13	    0.1338	$mt1	$X=11.15 $Y=-1.76
Ri237	vdd#13	vdd#14	3.330E-02	$mt1	$X=10.643 $Y=-1.76
Ri239	vdd#14	vdd#16	    0.1508	$mt1	$X=10.05 $Y=-1.76
Ri241	vdd#16	vdd#18	3.290E-02	$mt1	$X=9.457 $Y=-1.76
Ri242	vdd#18	vdd#19	    0.1498	$mt1	$X=8.9 $Y=-1.76
Ri243	vdd#19	vdd#20	    0.1338	$mt1	$X=8.01 $Y=-1.76
Ri244	vdd#20	vdd#21	3.330E-02	$mt1	$X=7.503 $Y=-1.76
Ri246	vdd#21	vdd#23	    0.1508	$mt1	$X=6.91 $Y=-1.76
Ri248	vdd#23	vdd#25	3.290E-02	$mt1	$X=6.317 $Y=-1.76
Ri249	vdd#25	vdd#26	8.261E-02	$mt1	$X=5.97 $Y=-1.76
Ri250	vdd#26	vdd#27	    0.1338	$mt1	$X=5.29 $Y=-1.76
Ri251	vdd#27	vdd#28	    0.1005	$mt1	$X=4.573 $Y=-1.76
Ri253	vdd#28	vdd#30	3.330E-02	$mt1	$X=4.117 $Y=-1.76
Ri254	vdd#30	vdd#31	    0.1165	$mt1	$X=3.683 $Y=-1.76
Ri256	vdd#31	vdd#33	3.330E-02	$mt1	$X=3.177 $Y=-1.76
Ri257	vdd#33	vdd#34	    0.1165	$mt1	$X=2.743 $Y=-1.76
Ri259	vdd#34	vdd#36	3.330E-02	$mt1	$X=2.237 $Y=-1.76
Ri260	vdd#36	vdd	    0.1164	$mt1	$X=1.803 $Y=-1.76
Ri263	vdd	vdd#40	    0.4178	$mt1	$X=1.21 $Y=-2.15
Ri265	vdd#4	vdd#43	    0.3908	$mt1	$X=15.65 $Y=-2.15
Ri267	vdd#5	vdd#46	    0.3908	$mt1	$X=14.71 $Y=-2.15
Ri269	vdd#6	vdd#49	    0.3908	$mt1	$X=13.87 $Y=-2.15
Ri271	vdd#11	vdd#52	    0.3908	$mt1	$X=12.51 $Y=-2.15
Ri273	vdd#12	vdd#55	    0.3908	$mt1	$X=11.57 $Y=-2.15
Ri275	vdd#13	vdd#58	    0.3908	$mt1	$X=10.73 $Y=-2.15
Ri277	vdd#18	vdd#61	    0.3908	$mt1	$X=9.37 $Y=-2.15
Ri279	vdd#19	vdd#64	    0.3908	$mt1	$X=8.43 $Y=-2.15
Ri281	vdd#20	vdd#67	    0.3908	$mt1	$X=7.59 $Y=-2.15
Ri283	vdd#25	vdd#70	    0.3908	$mt1	$X=6.23 $Y=-2.15
Ri285	vdd#26	vdd#73	    0.3908	$mt1	$X=5.71 $Y=-2.15
Ri287	vdd#27	vdd#76	    0.3908	$mt1	$X=4.87 $Y=-2.15
Ri289	vdd#30	vdd#79	    0.3908	$mt1	$X=4.03 $Y=-2.15
Ri291	vdd#33	vdd#82	    0.3908	$mt1	$X=3.09 $Y=-2.15
Ri293	vdd#36	vdd#85	    0.3908	$mt1	$X=2.15 $Y=-2.15
Ri295	vdd#1	vdd#2	   15.0000	$mt1	$X=15.86 $Y=-1.635
Ri296	vdd#1	vdd#7	   15.0000	$mt1	$X=13.66 $Y=-1.635
Ri297	vdd#1	vdd#9	   15.0000	$mt1	$X=12.72 $Y=-1.635
Ri298	vdd#1	vdd#14	   15.0000	$mt1	$X=10.52 $Y=-1.635
Ri299	vdd#1	vdd#16	   15.0000	$mt1	$X=9.58 $Y=-1.635
Ri300	vdd#1	vdd#21	   15.0000	$mt1	$X=7.38 $Y=-1.635
Ri301	vdd#1	vdd#23	   15.0000	$mt1	$X=6.44 $Y=-1.635
Ri302	vdd#1	vdd#28	   15.0000	$mt1	$X=4.24 $Y=-1.635
Ri303	vdd#1	vdd#31	   15.0000	$mt1	$X=3.3 $Y=-1.635
Ri304	vdd#1	vdd#34	   15.0000	$mt1	$X=2.36 $Y=-1.635
Ri305	vdd#1	vdd	   15.0000	$mt1	$X=1.42 $Y=-1.635
Ri306	vdd#39	vdd#40	   15.0000	$mt1	$X=1.21 $Y=-2.53
Ri307	vdd#42	vdd#43	   15.0000	$mt1	$X=15.65 $Y=-2.53
Ri308	vdd#45	vdd#46	   15.0000	$mt1	$X=14.71 $Y=-2.53
Ri309	vdd#48	vdd#49	   15.0000	$mt1	$X=13.87 $Y=-2.53
Ri310	vdd#51	vdd#52	   15.0000	$mt1	$X=12.51 $Y=-2.53
Ri311	vdd#54	vdd#55	   15.0000	$mt1	$X=11.57 $Y=-2.53
Ri312	vdd#57	vdd#58	   15.0000	$mt1	$X=10.73 $Y=-2.53
Ri313	vdd#60	vdd#61	   15.0000	$mt1	$X=9.37 $Y=-2.53
Ri314	vdd#63	vdd#64	   15.0000	$mt1	$X=8.43 $Y=-2.53
Ri315	vdd#66	vdd#67	   15.0000	$mt1	$X=7.59 $Y=-2.53
Ri316	vdd#69	vdd#70	   15.0000	$mt1	$X=6.23 $Y=-2.53
Ri317	vdd#72	vdd#73	   15.0000	$mt1	$X=5.71 $Y=-2.53
Ri318	vdd#75	vdd#76	   15.0000	$mt1	$X=4.87 $Y=-2.53
Ri319	vdd#78	vdd#79	   15.0000	$mt1	$X=4.03 $Y=-2.53
Ri320	vdd#81	vdd#82	   15.0000	$mt1	$X=3.09 $Y=-2.53
Ri321	vdd#84	vdd#85	   15.0000	$mt1	$X=2.15 $Y=-2.53
Ri323	gnd#1	gnd#4	3.330E-02	$mt1	$X=15.74 $Y=-5.86
Ri324	gnd#4	gnd#5	    0.3181	$mt1	$X=14.673 $Y=-5.86
Ri326	gnd#5	gnd#7	3.330E-02	$mt1	$X=13.537 $Y=-5.86
Ri327	gnd#7	gnd#8	    0.1161	$mt1	$X=13.103 $Y=-5.86
Ri329	gnd#8	gnd#10	3.330E-02	$mt1	$X=12.6265 $Y=-5.86
Ri330	gnd#10	gnd#11	    0.3181	$mt1	$X=11.533 $Y=-5.86
Ri332	gnd#11	gnd#13	3.330E-02	$mt1	$X=10.397 $Y=-5.86
Ri333	gnd#13	gnd#14	    0.1161	$mt1	$X=9.963 $Y=-5.86
Ri335	gnd#14	gnd#16	3.330E-02	$mt1	$X=9.4865 $Y=-5.86
Ri336	gnd#16	gnd#17	    0.3181	$mt1	$X=8.393 $Y=-5.86
Ri338	gnd#17	gnd#19	3.330E-02	$mt1	$X=7.257 $Y=-5.86
Ri339	gnd#19	gnd#20	    0.1161	$mt1	$X=6.823 $Y=-5.86
Ri341	gnd#20	gnd#22	3.330E-02	$mt1	$X=6.3465 $Y=-5.86
Ri342	gnd#22	gnd#23	    0.3181	$mt1	$X=5.253 $Y=-5.86
Ri344	gnd#23	gnd#25	3.330E-02	$mt1	$X=4.117 $Y=-5.86
Ri345	gnd#25	gnd#26	    0.1165	$mt1	$X=3.683 $Y=-5.86
Ri347	gnd#26	gnd#28	3.330E-02	$mt1	$X=3.177 $Y=-5.86
Ri348	gnd#28	gnd#29	    0.1165	$mt1	$X=2.743 $Y=-5.86
Ri350	gnd#29	gnd#31	3.330E-02	$mt1	$X=2.237 $Y=-5.86
Ri351	gnd#31	gnd	    0.1161	$mt1	$X=1.803 $Y=-5.86
Ri354	gnd	gnd#34	    0.3382	$mt1	$X=1.21 $Y=-5.47
Ri355	gnd#34	gnd#35	   15.0000	$mt1	$X=1.21 $Y=-5.21
Ri356	gnd#4	gnd#37	    0.3108	$mt1	$X=15.65 $Y=-5.47
Ri358	gnd#7	gnd#40	    0.3108	$mt1	$X=13.45 $Y=-5.47
Ri360	gnd#10	gnd#43	    0.3108	$mt1	$X=12.51 $Y=-5.47
Ri362	gnd#13	gnd#46	    0.3108	$mt1	$X=10.31 $Y=-5.47
Ri364	gnd#16	gnd#49	    0.3108	$mt1	$X=9.37 $Y=-5.47
Ri366	gnd#19	gnd#52	    0.3108	$mt1	$X=7.17 $Y=-5.47
Ri368	gnd#22	gnd#55	    0.3108	$mt1	$X=6.23 $Y=-5.47
Ri370	gnd#25	gnd#58	    0.3108	$mt1	$X=4.03 $Y=-5.47
Ri372	gnd#28	gnd#61	    0.3108	$mt1	$X=3.09 $Y=-5.47
Ri374	gnd#31	gnd#64	    0.3108	$mt1	$X=2.15 $Y=-5.47
Ri376	gnd#2	gnd#1	   15.0000	$mt1	$X=15.86 $Y=-5.98
Ri377	gnd#2	gnd#5	   15.0000	$mt1	$X=13.66 $Y=-5.98
Ri378	gnd#2	gnd#8	   15.0000	$mt1	$X=12.72 $Y=-5.98
Ri379	gnd#2	gnd#11	   15.0000	$mt1	$X=10.52 $Y=-5.98
Ri380	gnd#2	gnd#14	   15.0000	$mt1	$X=9.58 $Y=-5.98
Ri381	gnd#2	gnd#17	   15.0000	$mt1	$X=7.38 $Y=-5.98
Ri382	gnd#2	gnd#20	   15.0000	$mt1	$X=6.44 $Y=-5.98
Ri383	gnd#2	gnd#23	   15.0000	$mt1	$X=4.24 $Y=-5.98
Ri384	gnd#2	gnd#26	   15.0000	$mt1	$X=3.3 $Y=-5.98
Ri385	gnd#2	gnd#29	   15.0000	$mt1	$X=2.36 $Y=-5.98
Ri386	gnd#2	gnd	   15.0000	$mt1	$X=1.42 $Y=-5.98
Ri387	gnd#36	gnd#37	   15.0000	$mt1	$X=15.65 $Y=-5.21
Ri388	gnd#39	gnd#40	   15.0000	$mt1	$X=13.45 $Y=-5.21
Ri389	gnd#42	gnd#43	   15.0000	$mt1	$X=12.51 $Y=-5.21
Ri390	gnd#45	gnd#46	   15.0000	$mt1	$X=10.31 $Y=-5.21
Ri391	gnd#48	gnd#49	   15.0000	$mt1	$X=9.37 $Y=-5.21
Ri392	gnd#51	gnd#52	   15.0000	$mt1	$X=7.17 $Y=-5.21
Ri393	gnd#54	gnd#55	   15.0000	$mt1	$X=6.23 $Y=-5.21
Ri394	gnd#57	gnd#58	   15.0000	$mt1	$X=4.03 $Y=-5.21
Ri395	gnd#60	gnd#61	   15.0000	$mt1	$X=3.09 $Y=-5.21
Ri396	gnd#63	gnd#64	   15.0000	$mt1	$X=2.15 $Y=-5.21
Ri398	vdd#88	vdd#90	3.290E-02	$mt1	$X=15.7375 $Y=-7.865
Ri399	vdd#90	vdd#91	    0.1498	$mt1	$X=15.18 $Y=-7.865
Ri400	vdd#91	vdd#92	    0.1338	$mt1	$X=14.29 $Y=-7.865
Ri401	vdd#92	vdd#93	3.330E-02	$mt1	$X=13.783 $Y=-7.865
Ri403	vdd#93	vdd#95	    0.1508	$mt1	$X=13.19 $Y=-7.865
Ri405	vdd#95	vdd#97	3.290E-02	$mt1	$X=12.597 $Y=-7.865
Ri406	vdd#97	vdd#98	    0.1498	$mt1	$X=12.04 $Y=-7.865
Ri407	vdd#98	vdd#99	    0.1338	$mt1	$X=11.15 $Y=-7.865
Ri408	vdd#99	vdd#100	3.330E-02	$mt1	$X=10.643 $Y=-7.865
Ri410	vdd#100	vdd#102	    0.1508	$mt1
+ $X=10.05 $Y=-7.865
Ri412	vdd#102	vdd#104	3.290E-02	$mt1
+ $X=9.457 $Y=-7.865
Ri413	vdd#104	vdd#105	    0.1498	$mt1
+ $X=8.9 $Y=-7.865
Ri414	vdd#105	vdd#106	    0.1338	$mt1
+ $X=8.01 $Y=-7.865
Ri415	vdd#106	vdd#107	3.330E-02	$mt1
+ $X=7.503 $Y=-7.865
Ri417	vdd#107	vdd#109	    0.1508	$mt1
+ $X=6.91 $Y=-7.865
Ri419	vdd#109	vdd#111	3.290E-02	$mt1
+ $X=6.317 $Y=-7.865
Ri420	vdd#111	vdd#112	8.261E-02	$mt1
+ $X=5.97 $Y=-7.865
Ri421	vdd#112	vdd#113	    0.1338	$mt1
+ $X=5.29 $Y=-7.865
Ri422	vdd#113	vdd	9.962E-02	$mt1	$X=4.5755 $Y=-7.865
Ri425	vdd	vdd#117	    0.4182	$mt1	$X=4.03 $Y=-8.255
Ri427	vdd#90	vdd#120	    0.3908	$mt1	$X=15.65 $Y=-8.255
Ri429	vdd#91	vdd#123	    0.3908	$mt1	$X=14.71 $Y=-8.255
Ri431	vdd#92	vdd#126	    0.3908	$mt1	$X=13.87 $Y=-8.255
Ri433	vdd#97	vdd#129	    0.3908	$mt1	$X=12.51 $Y=-8.255
Ri435	vdd#98	vdd#132	    0.3908	$mt1	$X=11.57 $Y=-8.255
Ri437	vdd#99	vdd#135	    0.3908	$mt1	$X=10.73 $Y=-8.255
Ri439	vdd#104	vdd#138	    0.3908	$mt1
+ $X=9.37 $Y=-8.255
Ri441	vdd#105	vdd#141	    0.3908	$mt1
+ $X=8.43 $Y=-8.255
Ri443	vdd#106	vdd#144	    0.3908	$mt1
+ $X=7.59 $Y=-8.255
Ri445	vdd#111	vdd#147	    0.3908	$mt1
+ $X=6.23 $Y=-8.255
Ri447	vdd#112	vdd#150	    0.3908	$mt1
+ $X=5.71 $Y=-8.255
Ri449	vdd#113	vdd#153	    0.3908	$mt1
+ $X=4.87 $Y=-8.255
Ri451	vdd#87	vdd#88	   15.0000	$mt1	$X=15.86 $Y=-7.74
Ri452	vdd#87	vdd#93	   15.0000	$mt1	$X=13.66 $Y=-7.74
Ri453	vdd#87	vdd#95	   15.0000	$mt1	$X=12.72 $Y=-7.74
Ri454	vdd#87	vdd#100	   15.0000	$mt1	$X=10.52 $Y=-7.74
Ri455	vdd#87	vdd#102	   15.0000	$mt1	$X=9.58 $Y=-7.74
Ri456	vdd#87	vdd#107	   15.0000	$mt1	$X=7.38 $Y=-7.74
Ri457	vdd#87	vdd#109	   15.0000	$mt1	$X=6.44 $Y=-7.74
Ri458	vdd#87	vdd	   15.0000	$mt1	$X=4.24 $Y=-7.74
Ri459	vdd#116	vdd#117	   15.0000	$mt1
+ $X=4.03 $Y=-8.635
Ri460	vdd#119	vdd#120	   15.0000	$mt1
+ $X=15.65 $Y=-8.635
Ri461	vdd#122	vdd#123	   15.0000	$mt1
+ $X=14.71 $Y=-8.635
Ri462	vdd#125	vdd#126	   15.0000	$mt1
+ $X=13.87 $Y=-8.635
Ri463	vdd#128	vdd#129	   15.0000	$mt1
+ $X=12.51 $Y=-8.635
Ri464	vdd#131	vdd#132	   15.0000	$mt1
+ $X=11.57 $Y=-8.635
Ri465	vdd#134	vdd#135	   15.0000	$mt1
+ $X=10.73 $Y=-8.635
Ri466	vdd#137	vdd#138	   15.0000	$mt1
+ $X=9.37 $Y=-8.635
Ri467	vdd#140	vdd#141	   15.0000	$mt1
+ $X=8.43 $Y=-8.635
Ri468	vdd#143	vdd#144	   15.0000	$mt1
+ $X=7.59 $Y=-8.635
Ri469	vdd#146	vdd#147	   15.0000	$mt1
+ $X=6.23 $Y=-8.635
Ri470	vdd#149	vdd#150	   15.0000	$mt1
+ $X=5.71 $Y=-8.635
Ri471	vdd#152	vdd#153	   15.0000	$mt1
+ $X=4.87 $Y=-8.635
Ri473	gnd#66	gnd#68	3.330E-02	$mt1	$X=15.74 $Y=-11.965
Ri474	gnd#68	gnd#69	    0.3181	$mt1	$X=14.673 $Y=-11.965
Ri476	gnd#69	gnd#71	3.330E-02	$mt1	$X=13.537 $Y=-11.965
Ri477	gnd#71	gnd#72	    0.1161	$mt1	$X=13.103 $Y=-11.965
Ri479	gnd#72	gnd#74	3.330E-02	$mt1	$X=12.6265 $Y=-11.965
Ri480	gnd#74	gnd#75	    0.3181	$mt1	$X=11.533 $Y=-11.965
Ri482	gnd#75	gnd#77	3.330E-02	$mt1	$X=10.397 $Y=-11.965
Ri483	gnd#77	gnd#78	    0.1161	$mt1	$X=9.963 $Y=-11.965
Ri485	gnd#78	gnd#80	3.330E-02	$mt1	$X=9.4865 $Y=-11.965
Ri486	gnd#80	gnd#81	    0.3181	$mt1	$X=8.393 $Y=-11.965
Ri488	gnd#81	gnd#83	3.330E-02	$mt1	$X=7.257 $Y=-11.965
Ri489	gnd#83	gnd#84	    0.1161	$mt1	$X=6.823 $Y=-11.965
Ri491	gnd#84	gnd#86	3.330E-02	$mt1	$X=6.3465 $Y=-11.965
Ri492	gnd#86	gnd#87	    0.3181	$mt1	$X=5.253 $Y=-11.965
Ri494	gnd#87	gnd#90	    0.3382	$mt1	$X=4.03 $Y=-11.575
Ri496	gnd#68	gnd#93	    0.3108	$mt1	$X=15.65 $Y=-11.575
Ri498	gnd#71	gnd#96	    0.3108	$mt1	$X=13.45 $Y=-11.575
Ri500	gnd#74	gnd#99	    0.3108	$mt1	$X=12.51 $Y=-11.575
Ri502	gnd#77	gnd#102	    0.3108	$mt1	$X=10.31 $Y=-11.575
Ri504	gnd#80	gnd#105	    0.3108	$mt1	$X=9.37 $Y=-11.575
Ri506	gnd#83	gnd#108	    0.3108	$mt1	$X=7.17 $Y=-11.575
Ri508	gnd#86	gnd#111	    0.3108	$mt1	$X=6.23 $Y=-11.575
Ri510	gnd#2	gnd#66	   15.0000	$mt1	$X=15.86 $Y=-12.085
Ri511	gnd#2	gnd#69	   15.0000	$mt1	$X=13.66 $Y=-12.085
Ri512	gnd#2	gnd#72	   15.0000	$mt1	$X=12.72 $Y=-12.085
Ri513	gnd#2	gnd#75	   15.0000	$mt1	$X=10.52 $Y=-12.085
Ri514	gnd#2	gnd#78	   15.0000	$mt1	$X=9.58 $Y=-12.085
Ri515	gnd#2	gnd#81	   15.0000	$mt1	$X=7.38 $Y=-12.085
Ri516	gnd#2	gnd#84	   15.0000	$mt1	$X=6.44 $Y=-12.085
Ri517	gnd#2	gnd#87	   15.0000	$mt1	$X=4.24 $Y=-12.085
Ri518	gnd#89	gnd#90	   15.0000	$mt1	$X=4.03 $Y=-11.315
Ri519	gnd#92	gnd#93	   15.0000	$mt1	$X=15.65 $Y=-11.315
Ri520	gnd#95	gnd#96	   15.0000	$mt1	$X=13.45 $Y=-11.315
Ri521	gnd#98	gnd#99	   15.0000	$mt1	$X=12.51 $Y=-11.315
Ri522	gnd#101	gnd#102	   15.0000	$mt1
+ $X=10.31 $Y=-11.315
Ri523	gnd#104	gnd#105	   15.0000	$mt1
+ $X=9.37 $Y=-11.315
Ri524	gnd#107	gnd#108	   15.0000	$mt1
+ $X=7.17 $Y=-11.315
Ri525	gnd#110	gnd#111	   15.0000	$mt1
+ $X=6.23 $Y=-11.315
Rj1	S0#8	S0#2	  181.7927	$poly	$X=1.42 $Y=-3.65
Rj2	S0#2	S0#9	   37.7927	$poly	$X=1.42 $Y=-4.93
Rj3	S1#7	S1#2	  181.7927	$poly	$X=2.36 $Y=-3.65
Rj4	S1#2	S1#8	   37.7927	$poly	$X=2.36 $Y=-4.93
Rj5	S2#6	S2#2	  181.7927	$poly	$X=3.3 $Y=-3.65
Rj6	S2#2	S2#7	   37.7927	$poly	$X=3.3 $Y=-4.93
Rj7	D#7	D#4	  182.2927	$poly	$X=4.24 $Y=-3.6525
Rj8	D#4	D#8	   37.2927	$poly	$X=4.24 $Y=-4.9325
Rj9	D#9	D#10	  182.2927	$poly	$X=4.24 $Y=-9.7575
Rj10	D#10	D#11	   37.2927	$poly	$X=4.24 $Y=-11.0375
Rj11	D#6	D#10	   10.0000	$poly	$X=4.19 $Y=-10.76
Rj12	avC25#13	avC25#11	   45.1899	$poly
+ $X=4.66 $Y=-2.9525
Rj13	avC25#11	avC25#14	  175.0442	$poly
+ $X=4.46 $Y=-4.2325
Rj14	avC25#15	avC25#16	   45.1899	$poly
+ $X=4.66 $Y=-9.0575
Rj15	avC25#16	avC25#17	  175.0442	$poly
+ $X=4.46 $Y=-10.3375
Rj16	avC25#10	avC25#16	   10.0000	$poly
+ $X=4.51 $Y=-9.36
Rj17	avC24#21	avC24#22	  206.6899	$poly
+ $X=5.08 $Y=-3.66
Rj18	avC24#22	avC24#23	   48.1026	$poly
+ $X=4.68 $Y=-4.87
Rj19	avC24#15	avC24#22	   10.0000	$poly
+ $X=4.73 $Y=-4.53
Rj20	avC24#24	avC24#25	  206.6899	$poly
+ $X=5.08 $Y=-9.765
Rj21	avC24#25	avC24#26	   48.1026	$poly
+ $X=4.68 $Y=-10.975
Rj22	avC24#13	avC24#25	   10.0000	$poly
+ $X=4.73 $Y=-10.635
Rj23	avC23#13	avC23#10	  193.0442	$poly
+ $X=5.5 $Y=-3.7175
Rj24	avC23#10	avC23#14	   67.1899	$poly
+ $X=5.15 $Y=-4.855
Rj25	S0#13	S0#14	  193.0442	$poly	$X=5.5 $Y=-9.8225
Rj26	S0#14	S0#15	   67.1899	$poly	$X=5.15 $Y=-10.96
Rj27	S0#10	S0#14	   10.0000	$poly	$X=5.45 $Y=-10.89
Rj28	avC16#13	avC16#9	  181.7927	$poly
+ $X=6.44 $Y=-3.65
Rj29	avC16#9	avC16#14	   37.7927	$poly
+ $X=6.44 $Y=-4.93
Rj30	avC22#13	avC22#9	  181.7927	$poly
+ $X=6.44 $Y=-9.755
Rj31	avC22#9	avC22#14	   37.7927	$poly
+ $X=6.44 $Y=-11.035
Rj32	D#18	D#14	  182.2927	$poly	$X=7.38 $Y=-3.6525
Rj33	D#14	D#19	   37.2927	$poly	$X=7.38 $Y=-4.9325
Rj34	D#20	D#21	  182.2927	$poly	$X=7.38 $Y=-9.7575
Rj35	D#21	D#22	   37.2927	$poly	$X=7.38 $Y=-11.0375
Rj36	D#17	D#21	   10.0000	$poly	$X=7.33 $Y=-10.76
Rj37	S2#12	S2#8	   45.1899	$poly	$X=7.8 $Y=-2.9525
Rj38	S2#8	S2#13	  175.0442	$poly	$X=7.6 $Y=-4.2325
Rj39	S2#14	S2#15	   45.1899	$poly	$X=7.8 $Y=-9.0575
Rj40	S2#15	S2#16	  175.0442	$poly	$X=7.6 $Y=-10.3375
Rj41	S2#11	S2#15	   10.0000	$poly	$X=7.65 $Y=-9.36
Rj42	avC24#31	avC24#29	  206.6899	$poly
+ $X=8.22 $Y=-3.66
Rj43	avC24#29	avC24#32	   48.1026	$poly
+ $X=7.82 $Y=-4.87
Rj44	avC24#33	avC24#34	  206.6899	$poly
+ $X=8.22 $Y=-9.765
Rj45	avC24#34	avC24#35	   48.1026	$poly
+ $X=7.82 $Y=-10.975
Rj46	avC24#28	avC24#34	   10.0000	$poly
+ $X=7.87 $Y=-10.635
Rj47	avC23#19	avC23#17	  193.0442	$poly
+ $X=8.64 $Y=-3.7175
Rj48	avC23#17	avC23#20	   67.1899	$poly
+ $X=8.29 $Y=-4.855
Rj49	S0#23	S0#24	  193.0442	$poly	$X=8.64 $Y=-9.8225
Rj50	S0#24	S0#25	   67.1899	$poly	$X=8.29 $Y=-10.96
Rj51	S0#20	S0#24	   10.0000	$poly	$X=8.59 $Y=-10.89
Rj52	avC15#17	avC15#10	  181.7927	$poly
+ $X=9.58 $Y=-3.65
Rj53	avC15#10	avC15#18	   37.7927	$poly
+ $X=9.58 $Y=-4.93
Rj54	avC17#17	avC17#10	  181.7927	$poly
+ $X=9.58 $Y=-9.755
Rj55	avC17#10	avC17#18	   37.7927	$poly
+ $X=9.58 $Y=-11.035
Rj56	D#29	D#25	  182.2927	$poly	$X=10.52 $Y=-3.6525
Rj57	D#25	D#30	   37.2927	$poly	$X=10.52 $Y=-4.9325
Rj58	D#31	D#32	  182.2927	$poly	$X=10.52 $Y=-9.7575
Rj59	D#32	D#33	   37.2927	$poly	$X=10.52 $Y=-11.0375
Rj60	D#28	D#32	   10.0000	$poly	$X=10.47 $Y=-10.76
Rj61	avC25#26	avC25#25	   45.1899	$poly
+ $X=10.94 $Y=-2.9525
Rj62	avC25#25	avC25#27	  175.0442	$poly
+ $X=10.74 $Y=-4.2325
Rj63	avC25#28	avC25#23	   45.1899	$poly
+ $X=10.94 $Y=-9.0575
Rj64	avC25#23	avC25#29	  175.0442	$poly
+ $X=10.74 $Y=-10.3375
Rj65	S1#21	S1#9	  206.6899	$poly	$X=11.36 $Y=-3.66
Rj66	S1#9	S1#22	   48.1026	$poly	$X=10.96 $Y=-4.87
Rj67	S1#23	S1#24	  206.6899	$poly	$X=11.36 $Y=-9.765
Rj68	S1#24	S1#25	   48.1026	$poly	$X=10.96 $Y=-10.975
Rj69	S1#11	S1#24	   10.0000	$poly	$X=11.01 $Y=-10.635
Rj70	avC23#25	avC23#26	  193.0442	$poly
+ $X=11.78 $Y=-3.7175
Rj71	avC23#26	avC23#27	   67.1899	$poly
+ $X=11.43 $Y=-4.855
Rj72	avC23#22	avC23#26	   10.0000	$poly
+ $X=11.73 $Y=-4.785
Rj73	S0#33	S0#34	  193.0442	$poly	$X=11.78 $Y=-9.8225
Rj74	S0#34	S0#35	   67.1899	$poly	$X=11.43 $Y=-10.96
Rj75	S0#30	S0#34	   10.0000	$poly	$X=11.73 $Y=-10.89
Rj76	avC19#17	avC19#10	  181.7927	$poly
+ $X=12.72 $Y=-3.65
Rj77	avC19#10	avC19#18	   37.7927	$poly
+ $X=12.72 $Y=-4.93
Rj78	avC18#17	avC18#10	  181.7927	$poly
+ $X=12.72 $Y=-9.755
Rj79	avC18#10	avC18#18	   37.7927	$poly
+ $X=12.72 $Y=-11.035
Rj80	D#40	D#36	  182.2927	$poly	$X=13.66 $Y=-3.6525
Rj81	D#36	D#41	   37.2927	$poly	$X=13.66 $Y=-4.9325
Rj82	D#42	D#39	  182.2927	$poly	$X=13.66 $Y=-9.7575
Rj83	D#39	D#43	   37.2927	$poly	$X=13.66 $Y=-11.0375
Rj84	S2#35	S2#34	   45.1899	$poly	$X=14.08 $Y=-2.9525
Rj85	S2#34	S2#36	  175.0442	$poly	$X=13.88 $Y=-4.2325
Rj86	S2#37	S2#30	   45.1899	$poly	$X=14.08 $Y=-9.0575
Rj87	S2#30	S2#38	  175.0442	$poly	$X=13.88 $Y=-10.3375
Rj88	S1#39	S1#40	  206.6899	$poly	$X=14.5 $Y=-3.66
Rj89	S1#40	S1#41	   48.1026	$poly	$X=14.1 $Y=-4.87
Rj90	S1#26	S1#40	   10.0000	$poly	$X=14.15 $Y=-4.53
Rj91	S1#42	S1#28	  206.6899	$poly	$X=14.5 $Y=-9.765
Rj92	S1#28	S1#43	   48.1026	$poly	$X=14.1 $Y=-10.975
Rj93	avC23#32	avC23#33	  193.0442	$poly
+ $X=14.92 $Y=-3.7175
Rj94	avC23#33	avC23#34	   67.1899	$poly
+ $X=14.57 $Y=-4.855
Rj95	avC23#29	avC23#33	   10.0000	$poly
+ $X=14.87 $Y=-4.785
Rj96	S0#43	S0#44	  193.0442	$poly	$X=14.92 $Y=-9.8225
Rj97	S0#44	S0#45	   67.1899	$poly	$X=14.57 $Y=-10.96
Rj98	S0#41	S0#44	   10.0000	$poly	$X=14.87 $Y=-10.89
Rj99	avC21#17	avC21#10	  181.7927	$poly
+ $X=15.86 $Y=-3.65
Rj100	avC21#10	avC21#18	   37.7927	$poly
+ $X=15.86 $Y=-4.93
Rj101	avC20#17	avC20#10	  181.7927	$poly
+ $X=15.86 $Y=-9.755
Rj102	avC20#10	avC20#18	   37.7927	$poly
+ $X=15.86 $Y=-11.035
*
*       CAPACITOR CARDS
*
*
C1	vdd	gnd	1.782E-16	$X=2.8015 $Y=-4.7365
C2	D	gnd	4.647E-17	$X=3.862 $Y=-4.662
C3	S0	gnd	3.811E-17	$X=1.0275 $Y=-4.657
C4	S1	gnd	5.372E-17	$X=1.9625 $Y=-4.657
C5	S2	gnd	5.347E-17	$X=2.9075 $Y=-4.657
C6	Y0	gnd	2.442E-17	$X=6.8085 $Y=-3.202
C7	Y1	gnd	2.405E-17	$X=9.9485 $Y=-3.202
C8	Y2	gnd	2.562E-17	$X=13.0885 $Y=-3.202
C9	Y3	gnd	2.703E-17	$X=16.2285 $Y=-3.202
C10	Y4	gnd	2.718E-17	$X=6.8085 $Y=-9.307
C11	Y5	gnd	3.087E-17	$X=9.9485 $Y=-9.307
C12	Y6	gnd	2.052E-17	$X=13.0885 $Y=-9.307
C13	Y7	gnd	2.815E-17	$X=16.2285 $Y=-9.307
C14	avC48	gnd	5.431E-18	$X=14.207 $Y=-5.212
C15	avC47	gnd	9.585E-20	$X=13.987 $Y=-11.317
C16	avC42	gnd	5.431E-18	$X=11.067 $Y=-5.212
C17	avC22	gnd	6.889E-20	$X=5.287 $Y=-8.6365
C18	avC20	gnd	9.341E-19	$X=15.106 $Y=-8.6365
C19	S0#8	gnd	1.366E-16	$X=1.4175 $Y=-2.8865
C20	S1#7	gnd	1.381E-16	$X=2.3575 $Y=-2.8865
C21	S2#6	gnd	1.318E-16	$X=3.2975 $Y=-2.8865
C22	D#9	gnd	1.640E-16	$X=4.237 $Y=-8.992
C23	D#7	gnd	1.626E-16	$X=4.237 $Y=-2.8875
C24	avC25#15	gnd	8.435E-17	$X=4.657 $Y=-8.6375
C25	avC25#13	gnd	8.442E-17	$X=4.657 $Y=-2.5325
C26	avC24#24	gnd	1.742E-16	$X=5.077 $Y=-9.041
C27	avC24#21	gnd	1.736E-16	$X=5.077 $Y=-2.9365
C28	S0#13	gnd	1.533E-16	$X=5.497 $Y=-9.0245
C29	avC23#13	gnd	1.553E-16	$X=5.497 $Y=-2.92
C30	avC22#13	gnd	1.301E-16	$X=6.437 $Y=-8.991
C31	avC16#13	gnd	1.287E-16	$X=6.437 $Y=-2.8865
C32	D#20	gnd	1.861E-16	$X=7.377 $Y=-8.992
C33	D#18	gnd	1.912E-16	$X=7.377 $Y=-2.8875
C34	S2#14	gnd	7.834E-17	$X=7.797 $Y=-8.6375
C35	S2#12	gnd	7.834E-17	$X=7.797 $Y=-2.5325
C36	avC24#33	gnd	1.690E-16	$X=8.2165 $Y=-9.041
C37	avC24#31	gnd	1.708E-16	$X=8.2165 $Y=-2.9365
C38	S0#23	gnd	1.502E-16	$X=8.6365 $Y=-9.0245
C39	avC23#19	gnd	1.499E-16	$X=8.6365 $Y=-2.92
C40	avC17#17	gnd	1.267E-16	$X=9.5765 $Y=-8.991
C41	avC15#17	gnd	1.239E-16	$X=9.5765 $Y=-2.8865
C42	D#31	gnd	1.894E-16	$X=10.5165 $Y=-8.992
C43	D#29	gnd	1.893E-16	$X=10.5165 $Y=-2.8875
C44	avC25#28	gnd	7.952E-17	$X=10.937 $Y=-8.6375
C45	avC25#26	gnd	7.834E-17	$X=10.937 $Y=-2.5325
C46	S1#23	gnd	1.679E-16	$X=11.3565 $Y=-9.041
C47	S1#21	gnd	1.712E-16	$X=11.3565 $Y=-2.9365
C48	S0#33	gnd	1.542E-16	$X=11.7765 $Y=-9.0245
C49	avC23#25	gnd	1.492E-16	$X=11.7765 $Y=-2.92
C50	avC18#17	gnd	1.219E-16	$X=12.716 $Y=-8.991
C51	avC19#17	gnd	1.225E-16	$X=12.716 $Y=-2.8865
C52	D#42	gnd	1.876E-16	$X=13.656 $Y=-8.992
C53	D#40	gnd	1.878E-16	$X=13.656 $Y=-2.8875
C54	S2#37	gnd	7.954E-17	$X=14.0765 $Y=-8.6375
C55	S2#35	gnd	7.834E-17	$X=14.0765 $Y=-2.5325
C56	S1#42	gnd	1.646E-16	$X=14.496 $Y=-9.041
C57	S1#39	gnd	1.689E-16	$X=14.496 $Y=-2.9365
C58	S0#43	gnd	1.470E-16	$X=14.916 $Y=-9.0245
C59	avC23#32	gnd	1.483E-16	$X=14.916 $Y=-2.92
C60	avC20#17	gnd	1.251E-16	$X=15.856 $Y=-8.991
C61	avC21#17	gnd	1.168E-16	$X=15.856 $Y=-2.8865
C62	S0#9	gnd	5.574E-17	$X=1.4175 $Y=-5.217
C63	S1#8	gnd	5.982E-17	$X=2.3575 $Y=-5.217
C64	S2#7	gnd	5.873E-17	$X=3.2975 $Y=-5.217
C65	D#11	gnd	8.051E-17	$X=4.237 $Y=-11.323
C66	D#8	gnd	7.757E-17	$X=4.237 $Y=-5.218
C67	avC25#17	gnd	2.303E-16	$X=4.457 $Y=-10.9725
C68	avC25#14	gnd	2.308E-16	$X=4.457 $Y=-4.868
C69	avC24#26	gnd	1.107E-16	$X=4.677 $Y=-11.297
C70	avC24#23	gnd	1.115E-16	$X=4.677 $Y=-5.192
C71	S0#15	gnd	1.196E-16	$X=4.897 $Y=-11.264
C72	avC23#14	gnd	1.064E-16	$X=4.897 $Y=-5.1595
C73	avC22#14	gnd	6.164E-17	$X=6.437 $Y=-11.322
C74	avC16#14	gnd	6.099E-17	$X=6.437 $Y=-5.217
C75	D#22	gnd	8.216E-17	$X=7.377 $Y=-11.323
C76	D#19	gnd	7.458E-17	$X=7.377 $Y=-5.218
C77	S2#16	gnd	2.364E-16	$X=7.597 $Y=-10.9725
C78	S2#13	gnd	2.343E-16	$X=7.597 $Y=-4.868
C79	avC24#35	gnd	1.115E-16	$X=7.817 $Y=-11.297
C80	avC24#32	gnd	1.115E-16	$X=7.817 $Y=-5.192
C81	S0#25	gnd	1.253E-16	$X=8.037 $Y=-11.264
C82	avC23#20	gnd	1.176E-16	$X=8.037 $Y=-5.1595
C83	avC17#18	gnd	6.164E-17	$X=9.577 $Y=-11.322
C84	avC15#18	gnd	6.221E-17	$X=9.577 $Y=-5.217
C85	D#33	gnd	8.254E-17	$X=10.517 $Y=-11.323
C86	D#30	gnd	7.461E-17	$X=10.517 $Y=-5.218
C87	avC25#29	gnd	2.360E-16	$X=10.7365 $Y=-10.9725
C88	avC25#27	gnd	2.327E-16	$X=10.7365 $Y=-4.868
C89	S1#25	gnd	1.116E-16	$X=10.957 $Y=-11.297
C90	S1#22	gnd	1.103E-16	$X=10.957 $Y=-5.192
C91	S0#35	gnd	1.222E-16	$X=11.177 $Y=-11.264
C92	avC23#27	gnd	1.180E-16	$X=11.177 $Y=-5.1595
C93	avC18#18	gnd	6.284E-17	$X=12.717 $Y=-11.322
C94	avC19#18	gnd	6.410E-17	$X=12.717 $Y=-5.217
C95	D#43	gnd	8.032E-17	$X=13.657 $Y=-11.323
C96	D#41	gnd	7.455E-17	$X=13.657 $Y=-5.218
C97	S2#38	gnd	2.370E-16	$X=13.8765 $Y=-10.9725
C98	S2#36	gnd	2.328E-16	$X=13.8765 $Y=-4.868
C99	S1#43	gnd	1.114E-16	$X=14.097 $Y=-11.297
C100	S1#41	gnd	1.105E-16	$X=14.097 $Y=-5.192
C101	S0#45	gnd	1.225E-16	$X=14.3165 $Y=-11.264
C102	avC23#34	gnd	1.142E-16	$X=14.3165 $Y=-5.1595
C103	avC20#18	gnd	6.549E-17	$X=15.8565 $Y=-11.322
C104	avC21#18	gnd	6.189E-17	$X=15.8565 $Y=-5.217
C105	D#1	gnd	4.932E-16	$X=-0.031 $Y=-9.3485
C106	avC25#20	gnd	6.054E-16	$X=0.942 $Y=-4.7405
C107	S0#3	gnd	1.047E-16	$X=1.01 $Y=-4.6745
C108	S1#3	gnd	1.044E-16	$X=1.9685 $Y=-4.678
C109	avC24#8	gnd	1.146E-16	$X=3.0675 $Y=-3.222
C110	S2#3	gnd	1.114E-16	$X=2.8675 $Y=-4.6695
C111	avC25#9	gnd	7.373E-17	$X=4.482 $Y=-9.361
C112	avC24#12	gnd	1.191E-16	$X=4.717 $Y=-10.6495
C113	avC24#19	gnd	2.599E-16	$X=4.738 $Y=-4.5415
C114	avC23#12	gnd	1.241E-16	$X=5.447 $Y=-4.818
C115	S2#17	gnd	1.160E-16	$X=7.6415 $Y=-3.317
C116	avC24#36	gnd	5.075E-17	$X=7.8395 $Y=-10.6565
C117	avC24#37	gnd	2.987E-16	$X=7.1565 $Y=-3.867
C118	S0#22	gnd	9.129E-17	$X=8.6025 $Y=-10.907
C119	avC25#21	gnd	5.232E-16	$X=10.7835 $Y=-9.4595
C120	S1#14	gnd	1.125E-16	$X=10.9785 $Y=-10.6435
C121	avC23#24	gnd	5.478E-17	$X=11.7315 $Y=-4.817
C122	S0#32	gnd	3.726E-17	$X=11.749 $Y=-10.9015
C123	S2#24	gnd	6.478E-17	$X=13.936 $Y=-9.406
C124	S1#31	gnd	3.377E-17	$X=14.109 $Y=-4.562
C125	S1#30	gnd	5.644E-17	$X=14.114 $Y=-10.6515
C126	S0#42	gnd	6.702E-17	$X=14.8565 $Y=-10.8685
C127	S0#2	gnd	1.556E-16	$X=1.3875 $Y=-4.4715
C128	S1#2	gnd	1.666E-16	$X=2.3275 $Y=-4.4715
C129	S2#2	gnd	1.697E-16	$X=3.2675 $Y=-4.4715
C130	D#6	gnd	1.452E-16	$X=4.237 $Y=-10.3985
C131	D#4	gnd	2.081E-16	$X=4.212 $Y=-4.4755
C132	avC25#10	gnd	1.825E-16	$X=4.557 $Y=-9.3615
C133	avC25#11	gnd	1.817E-16	$X=4.557 $Y=-3.257
C134	avC24#13	gnd	1.852E-16	$X=4.777 $Y=-10.636
C135	avC24#15	gnd	1.942E-16	$X=4.777 $Y=-4.532
C136	S0#10	gnd	1.434E-16	$X=5.397 $Y=-10.891
C137	avC23#10	gnd	1.437E-16	$X=5.397 $Y=-4.787
C138	avC22#9	gnd	2.489E-16	$X=6.2825 $Y=-10.5745
C139	avC16#9	gnd	2.668E-16	$X=6.28 $Y=-4.471
C140	D#17	gnd	1.947E-16	$X=7.377 $Y=-10.3985
C141	D#14	gnd	1.671E-16	$X=7.377 $Y=-4.294
C142	S2#11	gnd	1.906E-16	$X=7.697 $Y=-9.3615
C143	S2#8	gnd	1.901E-16	$X=7.697 $Y=-3.257
C144	avC24#28	gnd	1.833E-16	$X=7.9165 $Y=-10.636
C145	avC24#29	gnd	1.909E-16	$X=7.9165 $Y=-4.532
C146	S0#20	gnd	1.414E-16	$X=8.5365 $Y=-10.891
C147	avC23#17	gnd	1.409E-16	$X=8.5365 $Y=-4.787
C148	avC17#10	gnd	2.307E-16	$X=9.4335 $Y=-10.575
C149	avC15#10	gnd	2.451E-16	$X=9.4335 $Y=-4.471
C150	D#28	gnd	1.906E-16	$X=10.5165 $Y=-10.3985
C151	D#25	gnd	1.648E-16	$X=10.5165 $Y=-4.294
C152	avC25#23	gnd	1.833E-16	$X=10.8365 $Y=-9.3615
C153	avC25#25	gnd	2.594E-16	$X=10.8185 $Y=-3.2745
C154	S1#11	gnd	1.858E-16	$X=11.0565 $Y=-10.636
C155	S1#9	gnd	1.830E-16	$X=11.0565 $Y=-4.532
C156	S0#30	gnd	1.405E-16	$X=11.6765 $Y=-10.891
C157	avC23#22	gnd	1.452E-16	$X=11.6765 $Y=-4.787
C158	avC18#10	gnd	2.178E-16	$X=12.5735 $Y=-10.575
C159	avC19#10	gnd	2.482E-16	$X=12.57 $Y=-4.471
C160	D#39	gnd	1.854E-16	$X=13.656 $Y=-10.3985
C161	D#36	gnd	1.769E-16	$X=13.656 $Y=-4.294
C162	S2#30	gnd	1.850E-16	$X=13.976 $Y=-9.3615
C163	S2#34	gnd	1.862E-16	$X=13.976 $Y=-3.257
C164	S1#28	gnd	2.667E-16	$X=14.1775 $Y=-10.649
C165	S1#26	gnd	1.865E-16	$X=14.196 $Y=-4.532
C166	S0#41	gnd	1.380E-16	$X=14.816 $Y=-10.891
C167	avC23#29	gnd	1.373E-16	$X=14.816 $Y=-4.787
C168	avC20#10	gnd	2.281E-16	$X=15.713 $Y=-10.575
C169	avC21#10	gnd	2.317E-16	$X=15.713 $Y=-4.471
C170	S0#7	gnd	3.963E-16	$X=0.925 $Y=-4.6695
C171	S0#19	gnd	3.626E-17	$X=5.457 $Y=-10.7275
C172	S0#29	gnd	3.191E-17	$X=8.602 $Y=-10.7125
C173	S0#39	gnd	2.475E-17	$X=11.732 $Y=-10.727
C174	S0#49	gnd	1.104E-16	$X=14.8595 $Y=-10.468
C175	S0#6	gnd	4.786E-17	$X=1.01 $Y=-4.682
C176	S1#6	gnd	3.512E-16	$X=1.963 $Y=-4.2535
C177	avC24#10	gnd	5.898E-17	$X=4.907 $Y=-10.6465
C178	avC24#20	gnd	1.132E-16	$X=5.0855 $Y=-7.1445
C179	S0#18	gnd	3.246E-17	$X=5.4545 $Y=-10.8815
C180	avC24#41	gnd	1.601E-16	$X=7.8415 $Y=-10.3205
C181	S0#28	gnd	6.759E-17	$X=8.5925 $Y=-10.911
C182	S1#19	gnd	1.434E-16	$X=11.02 $Y=-9.18
C183	S1#20	gnd	1.541E-16	$X=11.0165 $Y=-5.2205
C184	S0#38	gnd	1.887E-17	$X=11.7365 $Y=-10.909
C185	S1#36	gnd	2.394E-16	$X=14.082 $Y=-4.541
C186	S1#37	gnd	2.216E-16	$X=14.134 $Y=-9.924
C187	S0#48	gnd	2.709E-17	$X=14.854 $Y=-10.8715
C188	S1#5	gnd	4.939E-17	$X=1.9625 $Y=-4.6845
C189	S2#5	gnd	8.942E-17	$X=2.8885 $Y=-4.5135
C190	avC24#9	gnd	5.180E-17	$X=4.7195 $Y=-10.6565
C191	avC24#17	gnd	1.419E-17	$X=5.0895 $Y=-6.782
C192	S0#17	gnd	8.248E-17	$X=5.467 $Y=-10.8935
C193	S2#22	gnd	5.632E-16	$X=8.444 $Y=-3.29
C194	S2#21	gnd	1.943E-18	$X=7.647 $Y=-9.398
C195	avC24#40	gnd	1.144E-16	$X=7.8465 $Y=-10.656
C196	S1#17	gnd	5.095E-17	$X=10.974 $Y=-10.6515
C197	S1#18	gnd	3.410E-17	$X=11.0115 $Y=-4.5895
C198	S0#37	gnd	2.769E-17	$X=11.7365 $Y=-10.909
C199	S2#29	gnd	2.467E-16	$X=13.9335 $Y=-9.6495
C200	S1#34	gnd	2.606E-17	$X=14.1515 $Y=-4.5645
C201	S1#35	gnd	4.621E-17	$X=14.124 $Y=-10.6465
C202	S0#47	gnd	4.854E-17	$X=14.8615 $Y=-10.902
C203	D#2	gnd	1.227E-16	$X=0.896 $Y=-10.5905
C204	S0#4	gnd	3.477E-17	$X=1.0275 $Y=-4.682
C205	avC23#9	gnd	2.390E-16	$X=2.1255 $Y=-3.222
C206	S1#4	gnd	3.318E-17	$X=1.9625 $Y=-4.6795
C207	D#13	gnd	9.267E-17	$X=4.138 $Y=-10.771
C208	avC24#11	gnd	6.116E-17	$X=4.7145 $Y=-10.6565
C209	avC24#18	gnd	9.162E-17	$X=5.107 $Y=-6.217
C210	avC23#15	gnd	4.683E-17	$X=5.457 $Y=-4.431
C211	S0#16	gnd	3.817E-17	$X=5.4595 $Y=-10.9015
C212	D#24	gnd	9.807E-17	$X=7.2805 $Y=-10.725
C213	S2#20	gnd	6.654E-17	$X=7.6465 $Y=-9.3715
C214	avC24#39	gnd	6.089E-17	$X=7.8495 $Y=-10.6615
C215	avC23#21	gnd	9.176E-17	$X=8.309 $Y=-4.815
C216	S0#26	gnd	4.133E-17	$X=8.5945 $Y=-10.9015
C217	D#35	gnd	9.828E-17	$X=10.4225 $Y=-10.718
C218	S1#15	gnd	5.184E-17	$X=10.979 $Y=-10.6565
C219	S1#16	gnd	4.395E-17	$X=11.0115 $Y=-4.5895
C220	avC23#28	gnd	6.678E-17	$X=11.736 $Y=-4.6955
C221	S0#36	gnd	3.050E-17	$X=11.7365 $Y=-10.919
C222	D#48	gnd	1.915E-16	$X=13.608 $Y=-10.615
C223	S2#28	gnd	3.484E-16	$X=13.38 $Y=-3.285
C224	S2#27	gnd	2.538E-17	$X=13.864 $Y=-9.4015
C225	S1#32	gnd	2.996E-17	$X=14.1515 $Y=-4.5645
C226	S1#33	gnd	5.628E-17	$X=14.114 $Y=-10.6515
C227	avC23#35	gnd	1.790E-16	$X=14.8515 $Y=-4.5575
C228	avC23#4	gnd	1.510E-16	$X=1.6275 $Y=-3.411
C229	avC24#4	gnd	1.908E-16	$X=2.5885 $Y=-3.3995
C230	avC25#4	gnd	3.156E-16	$X=3.5295 $Y=-3.507
C231	D#3	gnd	4.352E-17	$X=3.867 $Y=-4.603
C232	D#5	gnd	1.268E-16	$X=4.1295 $Y=-10.761
C233	avC25#8	gnd	5.943E-17	$X=4.4995 $Y=-9.392
C234	avC25#12	gnd	5.698E-16	$X=4.519 $Y=-3.404
C235	avC24#14	gnd	8.213E-17	$X=4.7095 $Y=-10.6465
C236	avC24#16	gnd	8.911E-17	$X=4.7245 $Y=-4.542
C237	avC23#11	gnd	8.138E-17	$X=5.447 $Y=-4.812
C238	S0#11	gnd	1.278E-16	$X=5.4595 $Y=-10.8935
C239	vdd#109	gnd	1.214E-16	$X=6.363 $Y=-7.763
C240	vdd#23	gnd	9.247E-17	$X=6.363 $Y=-1.6625
C241	D#16	gnd	1.455E-16	$X=7.274 $Y=-10.7635
C242	D#15	gnd	1.316E-16	$X=7.3055 $Y=-4.6325
C243	S2#9	gnd	7.745E-17	$X=7.647 $Y=-3.317
C244	S2#10	gnd	1.228E-16	$X=7.644 $Y=-9.3765
C245	avC24#27	gnd	8.505E-17	$X=7.8595 $Y=-10.6565
C246	avC24#30	gnd	1.762E-16	$X=7.8665 $Y=-4.547
C247	avC23#16	gnd	1.268E-16	$X=8.5965 $Y=-4.8155
C248	S0#21	gnd	7.350E-17	$X=8.6245 $Y=-10.9015
C249	vdd#102	gnd	1.286E-16	$X=9.5005 $Y=-7.763
C250	vdd#16	gnd	4.026E-17	$X=9.5005 $Y=-1.6625
C251	D#27	gnd	1.641E-16	$X=10.4585 $Y=-10.7785
C252	D#26	gnd	1.310E-16	$X=10.4465 $Y=-4.637
C253	avC25#18	gnd	4.176E-16	$X=10.8095 $Y=-3.512
C254	S1#12	gnd	8.148E-17	$X=10.979 $Y=-10.6465
C255	S1#10	gnd	1.674E-16	$X=11.011 $Y=-4.598
C256	avC23#23	gnd	7.858E-17	$X=11.7315 $Y=-4.8095
C257	S0#31	gnd	1.156E-16	$X=11.752 $Y=-10.911
C258	vdd#95	gnd	8.989E-17	$X=12.6385 $Y=-7.763
C259	vdd#9	gnd	4.065E-17	$X=12.6385 $Y=-1.6625
C260	D#37	gnd	2.510E-16	$X=13.582 $Y=-4.554
C261	D#38	gnd	1.473E-16	$X=13.569 $Y=-10.742
C262	S2#26	gnd	1.027E-16	$X=13.9165 $Y=-3.2995
C263	S2#23	gnd	6.850E-17	$X=13.9265 $Y=-9.3965
C264	S1#27	gnd	1.332E-16	$X=14.116 $Y=-4.5545
C265	avC23#30	gnd	1.160E-16	$X=14.8905 $Y=-4.7995
C266	S0#40	gnd	7.685E-17	$X=14.894 $Y=-10.9015
C267	vdd#1	gnd	1.886E-15	$X=7.8915 $Y=-1.727
C268	vdd#87	gnd	1.467E-15	$X=9.9155 $Y=-7.733
C269	vdd#152	gnd	1.045E-17	$X=4.867 $Y=-8.6365
C270	avC17#7	gnd	1.059E-17	$X=7.187 $Y=-8.6365
C271	vdd#63	gnd	5.965E-20	$X=8.4265 $Y=-2.532
C272	avC18#14	gnd	1.630E-19	$X=11.1465 $Y=-8.6365
C273	avC20#14	gnd	1.630E-19	$X=14.286 $Y=-8.6365
C274	avC23#2	gnd	7.435E-17	$X=1.6275 $Y=-2.624
C275	avC23#6	gnd	1.587E-16	$X=1.6275 $Y=-4.7605
C276	avC24#2	gnd	7.690E-17	$X=2.5675 $Y=-2.624
C277	avC24#6	gnd	1.764E-16	$X=2.5675 $Y=-4.7605
C278	avC25#2	gnd	7.639E-17	$X=3.507 $Y=-2.624
C279	avC25#6	gnd	1.673E-16	$X=3.507 $Y=-4.7605
C280	avC16#2	gnd	6.958E-17	$X=5.287 $Y=-2.5625
C281	avC16#4	gnd	1.255E-16	$X=5.5945 $Y=-2.957
C282	avC16#5	gnd	1.327E-16	$X=5.107 $Y=-3.475
C283	avC16#7	gnd	1.379E-16	$X=4.447 $Y=-2.6545
C284	avC16#11	gnd	1.731E-16	$X=5.107 $Y=-4.693
C285	avC22#2	gnd	6.928E-17	$X=5.287 $Y=-8.6675
C286	avC22#4	gnd	1.105E-16	$X=5.5995 $Y=-9.0615
C287	avC22#5	gnd	1.164E-16	$X=5.107 $Y=-9.5795
C288	avC22#7	gnd	1.453E-16	$X=4.447 $Y=-8.759
C289	avC22#11	gnd	1.782E-16	$X=5.107 $Y=-10.7975
C290	Y0#1	gnd	1.218E-16	$X=6.647 $Y=-3.567
C291	Y0#3	gnd	1.708E-16	$X=6.647 $Y=-4.7545
C292	Y0#6	gnd	7.490E-17	$X=6.647 $Y=-2.6245
C293	Y4#1	gnd	1.090E-16	$X=6.647 $Y=-9.6715
C294	Y4#3	gnd	1.661E-16	$X=6.647 $Y=-10.859
C295	Y4#6	gnd	7.492E-17	$X=6.647 $Y=-8.7295
C296	avC24#38	gnd	3.614E-16	$X=4.312 $Y=-3.212
C297	avC24#42	gnd	2.503E-16	$X=5.004 $Y=-9.9095
C298	avC15#2	gnd	6.080E-17	$X=8.847 $Y=-2.5625
C299	avC15#4	gnd	9.873E-17	$X=8.9715 $Y=-2.957
C300	avC15#5	gnd	1.229E-16	$X=8.2465 $Y=-3.465
C301	avC15#6	gnd	7.096E-17	$X=7.736 $Y=-2.957
C302	avC15#8	gnd	1.222E-16	$X=7.167 $Y=-2.6545
C303	avC15#12	gnd	1.840E-16	$X=8.2465 $Y=-4.693
C304	avC15#15	gnd	7.117E-17	$X=8.007 $Y=-2.563
C305	avC17#2	gnd	6.080E-17	$X=8.847 $Y=-8.6675
C306	avC17#4	gnd	9.627E-17	$X=8.9715 $Y=-9.0615
C307	avC17#5	gnd	1.115E-16	$X=8.2465 $Y=-9.5695
C308	avC17#6	gnd	8.265E-17	$X=7.736 $Y=-9.062
C309	avC17#8	gnd	1.165E-16	$X=7.167 $Y=-8.759
C310	avC17#12	gnd	1.801E-16	$X=8.2465 $Y=-10.7975
C311	avC17#15	gnd	7.117E-17	$X=8.007 $Y=-8.668
C312	Y1#1	gnd	1.196E-16	$X=9.7865 $Y=-3.567
C313	Y1#3	gnd	1.684E-16	$X=9.7865 $Y=-4.7545
C314	Y1#6	gnd	7.650E-17	$X=9.787 $Y=-2.6245
C315	Y5#1	gnd	1.178E-16	$X=9.7865 $Y=-9.6715
C316	Y5#3	gnd	1.677E-16	$X=9.7865 $Y=-10.859
C317	Y5#6	gnd	7.650E-17	$X=9.787 $Y=-8.7295
C318	avC25#22	gnd	7.909E-16	$X=1.8985 $Y=-9.356
C319	avC19#2	gnd	6.080E-17	$X=11.987 $Y=-2.5625
C320	avC19#4	gnd	9.133E-17	$X=12.106 $Y=-2.957
C321	avC19#5	gnd	1.174E-16	$X=11.3865 $Y=-3.465
C322	avC19#6	gnd	7.002E-17	$X=10.876 $Y=-2.957
C323	avC19#8	gnd	1.210E-16	$X=10.3065 $Y=-2.6545
C324	avC19#12	gnd	1.747E-16	$X=11.3865 $Y=-4.693
C325	avC19#15	gnd	7.117E-17	$X=11.147 $Y=-2.563
C326	avC18#2	gnd	6.080E-17	$X=11.987 $Y=-8.6675
C327	avC18#4	gnd	8.240E-17	$X=12.1135 $Y=-9.0615
C328	avC18#5	gnd	1.046E-16	$X=11.3865 $Y=-9.5695
C329	avC18#6	gnd	7.194E-17	$X=10.876 $Y=-9.062
C330	avC18#8	gnd	1.201E-16	$X=10.3065 $Y=-8.759
C331	avC18#12	gnd	1.703E-16	$X=11.3865 $Y=-10.7975
C332	avC18#15	gnd	7.191E-17	$X=11.147 $Y=-8.668
C333	Y2#1	gnd	1.207E-16	$X=12.9265 $Y=-3.567
C334	Y2#3	gnd	1.675E-16	$X=12.9265 $Y=-4.7545
C335	Y2#6	gnd	7.647E-17	$X=12.9265 $Y=-2.6245
C336	Y6#1	gnd	1.096E-16	$X=12.9265 $Y=-9.6715
C337	Y6#3	gnd	1.642E-16	$X=12.9265 $Y=-10.859
C338	Y6#6	gnd	7.651E-17	$X=12.9265 $Y=-8.7295
C339	D#44	gnd	3.649E-16	$X=10.455 $Y=-4.2585
C340	D#45	gnd	4.614E-16	$X=7.311 $Y=-4.257
C341	D#46	gnd	7.546E-16	$X=1.921 $Y=-4.191
C342	D#49	gnd	2.949E-16	$X=10.465 $Y=-10.275
C343	D#50	gnd	3.578E-16	$X=6.27 $Y=-10.1795
C344	D#51	gnd	3.206E-16	$X=3.5295 $Y=-10.4715
C345	S2#31	gnd	8.694E-16	$X=3.9415 $Y=-9.6935
C346	S2#32	gnd	7.896E-16	$X=2.908 $Y=-3.569
C347	S1#38	gnd	3.452E-16	$X=8.557 $Y=-3.791
C348	avC21#2	gnd	6.245E-17	$X=15.1265 $Y=-2.5625
C349	avC21#4	gnd	1.002E-16	$X=15.253 $Y=-2.957
C350	avC21#5	gnd	1.034E-16	$X=14.526 $Y=-3.465
C351	avC21#6	gnd	6.569E-17	$X=14.0155 $Y=-2.957
C352	avC21#8	gnd	1.176E-16	$X=13.4465 $Y=-2.6545
C353	avC21#12	gnd	1.734E-16	$X=14.526 $Y=-4.693
C354	avC21#15	gnd	7.117E-17	$X=14.287 $Y=-2.563
C355	avC20#2	gnd	6.080E-17	$X=15.1265 $Y=-8.6675
C356	avC20#4	gnd	9.392E-17	$X=15.253 $Y=-9.0615
C357	avC20#5	gnd	9.578E-17	$X=14.526 $Y=-9.5695
C358	avC20#6	gnd	6.638E-17	$X=14.0155 $Y=-9.062
C359	avC20#8	gnd	1.161E-16	$X=13.4465 $Y=-8.759
C360	avC20#12	gnd	1.678E-16	$X=14.526 $Y=-10.7975
C361	avC20#15	gnd	7.229E-17	$X=14.287 $Y=-8.668
C362	Y3#1	gnd	1.136E-16	$X=16.066 $Y=-3.567
C363	Y3#3	gnd	1.603E-16	$X=16.066 $Y=-4.7545
C364	Y3#6	gnd	7.302E-17	$X=16.0665 $Y=-2.6245
C365	Y7#1	gnd	1.076E-16	$X=16.066 $Y=-9.6715
C366	Y7#3	gnd	1.448E-16	$X=16.066 $Y=-10.859
C367	Y7#6	gnd	6.038E-17	$X=16.0665 $Y=-8.7295
C368	vdd#2	gnd	2.682E-16	$X=16.202 $Y=-1.703
C369	vdd#4	gnd	9.860E-18	$X=15.3805 $Y=-1.7625
C370	vdd#5	gnd	3.774E-17	$X=14.7035 $Y=-1.832
C371	vdd#6	gnd	2.356E-17	$X=13.8655 $Y=-1.832
C372	vdd#7	gnd	5.269E-17	$X=13.719 $Y=-1.6625
C373	vdd#11	gnd	1.028E-17	$X=12.241 $Y=-1.7625
C374	vdd#12	gnd	3.774E-17	$X=11.5645 $Y=-1.832
C375	vdd#13	gnd	2.244E-17	$X=10.726 $Y=-1.832
C376	vdd#14	gnd	4.700E-17	$X=10.5815 $Y=-1.6625
C377	vdd#18	gnd	1.025E-17	$X=9.1015 $Y=-1.7625
C378	vdd#19	gnd	3.774E-17	$X=8.4255 $Y=-1.832
C379	vdd#20	gnd	2.350E-17	$X=7.5865 $Y=-1.832
C380	vdd#21	gnd	7.268E-17	$X=7.4435 $Y=-1.6625
C381	vdd#25	gnd	4.376E-18	$X=6.227 $Y=-1.832
C382	vdd#26	gnd	2.480E-17	$X=5.7065 $Y=-1.832
C383	vdd#27	gnd	3.496E-17	$X=4.867 $Y=-1.832
C384	vdd#28	gnd	7.348E-17	$X=4.447 $Y=-1.6625
C385	vdd#30	gnd	6.232E-18	$X=4.027 $Y=-1.832
C386	vdd#31	gnd	5.049E-17	$X=3.363 $Y=-1.6625
C387	vdd#33	gnd	6.310E-18	$X=3.0875 $Y=-1.832
C388	vdd#34	gnd	5.388E-17	$X=2.4225 $Y=-1.6625
C389	vdd#36	gnd	5.718E-18	$X=2.1475 $Y=-1.832
C390	vdd#40	gnd	4.044E-17	$X=1.2075 $Y=-2.4485
C391	vdd#43	gnd	5.381E-17	$X=15.6465 $Y=-2.462
C392	vdd#46	gnd	7.775E-17	$X=14.7065 $Y=-2.462
C393	vdd#49	gnd	8.249E-17	$X=13.8665 $Y=-2.462
C394	vdd#52	gnd	5.680E-17	$X=12.507 $Y=-2.462
C395	vdd#55	gnd	7.873E-17	$X=11.567 $Y=-2.462
C396	vdd#58	gnd	8.153E-17	$X=10.727 $Y=-2.462
C397	vdd#61	gnd	5.794E-17	$X=9.367 $Y=-2.462
C398	vdd#64	gnd	7.890E-17	$X=8.427 $Y=-2.462
C399	vdd#67	gnd	8.195E-17	$X=7.587 $Y=-2.462
C400	vdd#70	gnd	4.277E-17	$X=6.227 $Y=-2.462
C401	vdd#73	gnd	5.682E-17	$X=5.707 $Y=-2.462
C402	vdd#76	gnd	7.933E-17	$X=4.867 $Y=-2.462
C403	vdd#79	gnd	5.948E-17	$X=4.027 $Y=-2.462
C404	vdd#82	gnd	5.788E-17	$X=3.0875 $Y=-2.462
C405	vdd#85	gnd	5.752E-17	$X=2.1475 $Y=-2.462
C406	vdd#88	gnd	3.582E-16	$X=16.202 $Y=-7.8105
C407	vdd#90	gnd	1.478E-17	$X=15.3805 $Y=-7.866
C408	vdd#91	gnd	4.553E-17	$X=14.7035 $Y=-7.935
C409	vdd#92	gnd	3.668E-17	$X=13.8655 $Y=-7.9355
C410	vdd#93	gnd	1.271E-16	$X=13.719 $Y=-7.763
C411	vdd#97	gnd	1.526E-17	$X=12.241 $Y=-7.866
C412	vdd#98	gnd	4.553E-17	$X=11.5645 $Y=-7.935
C413	vdd#99	gnd	3.704E-17	$X=10.726 $Y=-7.9355
C414	vdd#100	gnd	1.423E-16	$X=10.5815 $Y=-7.763
C415	vdd#104	gnd	1.603E-17	$X=9.1015 $Y=-7.866
C416	vdd#105	gnd	4.618E-17	$X=8.4255 $Y=-7.935
C417	vdd#106	gnd	2.836E-17	$X=7.5865 $Y=-7.9355
C418	vdd#107	gnd	1.295E-16	$X=7.4435 $Y=-7.763
C419	vdd#111	gnd	8.352E-18	$X=6.227 $Y=-7.936
C420	vdd#112	gnd	2.876E-17	$X=5.7065 $Y=-7.9355
C421	vdd#113	gnd	5.421E-17	$X=4.867 $Y=-7.9355
C422	vdd#117	gnd	3.840E-17	$X=4.027 $Y=-8.552
C423	vdd#120	gnd	5.445E-17	$X=15.6465 $Y=-8.567
C424	vdd#123	gnd	7.808E-17	$X=14.7065 $Y=-8.567
C425	vdd#126	gnd	8.147E-17	$X=13.8665 $Y=-8.567
C426	vdd#129	gnd	5.545E-17	$X=12.507 $Y=-8.567
C427	vdd#132	gnd	7.793E-17	$X=11.567 $Y=-8.567
C428	vdd#135	gnd	8.227E-17	$X=10.727 $Y=-8.567
C429	vdd#138	gnd	5.771E-17	$X=9.367 $Y=-8.567
C430	vdd#141	gnd	7.816E-17	$X=8.427 $Y=-8.567
C431	vdd#144	gnd	8.233E-17	$X=7.587 $Y=-8.567
C432	vdd#147	gnd	3.935E-17	$X=6.227 $Y=-8.567
C433	vdd#150	gnd	5.533E-17	$X=5.707 $Y=-8.567
C434	vdd#153	gnd	7.756E-17	$X=4.867 $Y=-8.567
C435	avC23#36	gnd	3.545E-16	$X=5.4565 $Y=-3.548
C436	avC23#37	gnd	4.154E-16	$X=7.3305 $Y=-4.0065
C437	avC23#38	gnd	3.657E-16	$X=11.7435 $Y=-3.981
C438	S0#50	gnd	4.987E-16	$X=3.0375 $Y=-9.987
C439	S0#51	gnd	2.284E-16	$X=8.6005 $Y=-10.1625
C440	S0#52	gnd	1.830E-16	$X=11.729 $Y=-10.1765
*
*
.ENDS 1x8_demux
*
